<?xml version="1.0" encoding="UTF-8"?>
<additional>

    <laneAreaDetector id="det_L_1_0" lane="1_0" pos="0" length="1000.00" freq="60.0" file="e2_lane_output.xml" />
    <laneAreaDetector id="det_L_1_1" lane="1_1" pos="0" length="1000.00" freq="60.0" file="e2_lane_output.xml" />
    <laneAreaDetector id="det_L_1_2" lane="1_2" pos="0" length="1000.00" freq="60.0" file="e2_lane_output.xml" />

    <laneAreaDetector id="det_L_2_0" lane="2_0" pos="0" length="200.00" freq="60.0" file="e2_lane_output.xml" />
    <laneAreaDetector id="det_L_2_1" lane="2_1" pos="0" length="200.00" freq="60.0" file="e2_lane_output.xml" />
    <laneAreaDetector id="det_L_2_2" lane="2_2" pos="0" length="200.00" freq="60.0" file="e2_lane_output.xml" />
    <laneAreaDetector id="det_L_3_0" lane="3_0" pos="0" length="200.00" freq="60.0" file="e2_lane_output.xml" />
    <laneAreaDetector id="det_L_3_1" lane="3_1" pos="0" length="200.00" freq="60.0" file="e2_lane_output.xml" />
    <laneAreaDetector id="det_L_3_2" lane="3_2" pos="0" length="200.00" freq="60.0" file="e2_lane_output.xml" />
    <laneAreaDetector id="det_L_4_0" lane="4_0" pos="0" length="200.00" freq="60.0" file="e2_lane_output.xml" />
    <laneAreaDetector id="det_L_4_1" lane="4_1" pos="0" length="200.00" freq="60.0" file="e2_lane_output.xml" />
    <laneAreaDetector id="det_L_4_2" lane="4_2" pos="0" length="200.00" freq="60.0" file="e2_lane_output.xml" />
    <laneAreaDetector id="det_L_5_0" lane="5_0" pos="0" length="200.00" freq="60.0" file="e2_lane_output.xml" />
    <laneAreaDetector id="det_L_5_1" lane="5_1" pos="0" length="200.00" freq="60.0" file="e2_lane_output.xml" />
    <laneAreaDetector id="det_L_5_2" lane="5_2" pos="0" length="200.00" freq="60.0" file="e2_lane_output.xml" />
    <laneAreaDetector id="det_L_6_0" lane="6_0" pos="0" length="200.00" freq="60.0" file="e2_lane_output.xml" />
    <laneAreaDetector id="det_L_6_1" lane="6_1" pos="0" length="200.00" freq="60.0" file="e2_lane_output.xml" />
    <laneAreaDetector id="det_L_6_2" lane="6_2" pos="0" length="200.00" freq="60.0" file="e2_lane_output.xml" />
    <laneAreaDetector id="det_L_7_0" lane="7_0" pos="0" length="200.00" freq="60.0" file="e2_lane_output.xml" />
    <laneAreaDetector id="det_L_7_1" lane="7_1" pos="0" length="200.00" freq="60.0" file="e2_lane_output.xml" />
    <laneAreaDetector id="det_L_7_2" lane="7_2" pos="0" length="200.00" freq="60.0" file="e2_lane_output.xml" />
    <laneAreaDetector id="det_L_8_0" lane="8_0" pos="0" length="200.00" freq="60.0" file="e2_lane_output.xml" />
    <laneAreaDetector id="det_L_8_1" lane="8_1" pos="0" length="200.00" freq="60.0" file="e2_lane_output.xml" />
    <laneAreaDetector id="det_L_8_2" lane="8_2" pos="0" length="200.00" freq="60.0" file="e2_lane_output.xml" />
    <laneAreaDetector id="det_L_9_0" lane="9_0" pos="0" length="200.00" freq="60.0" file="e2_lane_output.xml" />
    <laneAreaDetector id="det_L_9_1" lane="9_1" pos="0" length="200.00" freq="60.0" file="e2_lane_output.xml" />
    <laneAreaDetector id="det_L_9_2" lane="9_2" pos="0" length="200.00" freq="60.0" file="e2_lane_output.xml" />
    <laneAreaDetector id="det_L_10_0" lane="10_0" pos="0" length="200.00" freq="60.0" file="e2_lane_output.xml" />
    <laneAreaDetector id="det_L_10_1" lane="10_1" pos="0" length="200.00" freq="60.0" file="e2_lane_output.xml" />
    <laneAreaDetector id="det_L_10_2" lane="10_2" pos="0" length="200.00" freq="60.0" file="e2_lane_output.xml" />
    <laneAreaDetector id="det_L_11_0" lane="11_0" pos="0" length="196.00" freq="60.0" file="e2_lane_output.xml" />
    <laneAreaDetector id="det_L_11_1" lane="11_1" pos="0" length="196.00" freq="60.0" file="e2_lane_output.xml" />
    <laneAreaDetector id="det_L_11_2" lane="11_2" pos="0" length="196.00" freq="60.0" file="e2_lane_output.xml" />

    <laneAreaDetector id="det_L_12_0" lane="12_0" pos="0" length="292.00" freq="60.0" file="e2_lane_output.xml" />
    <laneAreaDetector id="det_L_12_1" lane="12_1" pos="0" length="292.00" freq="60.0" file="e2_lane_output.xml" />

    <laneAreaDetector id="det_L_13_0" lane="13_0" pos="0" length="696.00" freq="60.0" file="e2_lane_output.xml" />
    <laneAreaDetector id="det_L_13_1" lane="13_1" pos="0" length="696.00" freq="60.0" file="e2_lane_output.xml" />
    <laneAreaDetector id="det_L_13_2" lane="13_2" pos="0" length="696.00" freq="60.0" file="e2_lane_output.xml" />

</additional>