<?xml version="1.0" encoding="UTF-8"?>
<routes>
    <route id="freeway" edges="1 2 3 4 5 6 7 8 9 10 11 12 13"/>

    <flow id="hv_flow1" 
          type="hv" 
          color="yellow"
          route="freeway" 
          begin="0" 
          end="1800" 
          vehsPerHour="1000"  
          departLane="0"
          arrivalLane="0" 
          departSpeed="max"/>

    <flow id="hv_flow2" 
          type="hv" 
          color="yellow"
          route="freeway" 
          begin="0" 
          end="1800" 
          vehsPerHour="1000" 
          departLane="1"
          arrivalLane="1" 
          departSpeed="max"/>

    <flow id="hv_flow3" 
          type="hv" 
          color="yellow"
          route="freeway" 
          begin="0" 
          end="1800" 
          vehsPerHour="1000"  
          departLane="2"
          arrivalLane="2" 
          departSpeed="max"/>

    <flow id="cav_flow1" 
          type="cav"
          color="green" 
          route="freeway" 
          begin="0" 
          end="1800" 
          vehsPerHour="500"
          departLane="0"
          arrivalLane="0"
          departSpeed="max"/>

    <flow id="cav_flow2" 
          type="cav"
          color="green" 
          route="freeway" 
          begin="0" 
          end="1800" 
          vehsPerHour="500"
          departLane="1"
          arrivalLane="1"
          departSpeed="max"/>

    <flow id="cav_flow3" 
          type="cav"
          color="green" 
          route="freeway" 
          begin="0" 
          end="1800" 
          vehsPerHour="500"
          departLane="2"
          arrivalLane="2" 
          departSpeed="max"/>

</routes>