<?xml version="1.0" ?>
<additional xmlns:xsi="http://www.w3.org/2001/XMLSchema-instance" xsi:noNamespaceSchemaLocation="http://sumo.dlr.de/xsd/additional_file.xsd">
	<vTypeDistribution id="cav">
		<vType id="cav0" tau="0.600" tauCACCToACC="1.549" length="5.000" width="1.800" accel="2.500" decel="4.000" emergencyDecel="9.000" vClass="custom2" carFollowModel="CACC" laneChangeModel="LC2013" lcAssertive="0.840" lcLookaheadLeft="0.000" lcSpeedGain="0.000" lcStrategic="0.000" lcCooperative="0.000" lcKeepRight="0.000" lcPushy="0.000" actionStepLength="0.100"/>
		<vType id="cav1" tau="0.600" tauCACCToACC="1.751" length="5.000" width="1.800" accel="2.500" decel="4.000" emergencyDecel="9.000" vClass="custom2" carFollowModel="CACC" laneChangeModel="LC2013" lcAssertive="0.847" lcLookaheadLeft="0.000" lcSpeedGain="0.000" lcStrategic="0.000" lcCooperative="0.000" lcKeepRight="0.000" lcPushy="0.000" actionStepLength="0.100"/>
		<vType id="cav2" tau="0.600" tauCACCToACC="1.305" length="5.000" width="1.800" accel="2.500" decel="4.000" emergencyDecel="9.000" vClass="custom2" carFollowModel="CACC" laneChangeModel="LC2013" lcAssertive="0.861" lcLookaheadLeft="0.000" lcSpeedGain="0.000" lcStrategic="0.000" lcCooperative="0.000" lcKeepRight="0.000" lcPushy="0.000" actionStepLength="0.100"/>
		<vType id="cav3" tau="0.600" tauCACCToACC="1.266" length="5.000" width="1.800" accel="2.500" decel="4.000" emergencyDecel="9.000" vClass="custom2" carFollowModel="CACC" laneChangeModel="LC2013" lcAssertive="0.885" lcLookaheadLeft="0.000" lcSpeedGain="0.000" lcStrategic="0.000" lcCooperative="0.000" lcKeepRight="0.000" lcPushy="0.000" actionStepLength="0.100"/>
		<vType id="cav4" tau="0.600" tauCACCToACC="1.435" length="5.000" width="1.800" accel="2.500" decel="4.000" emergencyDecel="9.000" vClass="custom2" carFollowModel="CACC" laneChangeModel="LC2013" lcAssertive="0.874" lcLookaheadLeft="0.000" lcSpeedGain="0.000" lcStrategic="0.000" lcCooperative="0.000" lcKeepRight="0.000" lcPushy="0.000" actionStepLength="0.100"/>
		<vType id="cav5" tau="0.600" tauCACCToACC="1.801" length="5.000" width="1.800" accel="2.500" decel="4.000" emergencyDecel="9.000" vClass="custom2" carFollowModel="CACC" laneChangeModel="LC2013" lcAssertive="0.889" lcLookaheadLeft="0.000" lcSpeedGain="0.000" lcStrategic="0.000" lcCooperative="0.000" lcKeepRight="0.000" lcPushy="0.000" actionStepLength="0.100"/>
		<vType id="cav6" tau="0.600" tauCACCToACC="1.962" length="5.000" width="1.800" accel="2.500" decel="4.000" emergencyDecel="9.000" vClass="custom2" carFollowModel="CACC" laneChangeModel="LC2013" lcAssertive="0.841" lcLookaheadLeft="0.000" lcSpeedGain="0.000" lcStrategic="0.000" lcCooperative="0.000" lcKeepRight="0.000" lcPushy="0.000" actionStepLength="0.100"/>
		<vType id="cav7" tau="0.600" tauCACCToACC="1.796" length="5.000" width="1.800" accel="2.500" decel="4.000" emergencyDecel="9.000" vClass="custom2" carFollowModel="CACC" laneChangeModel="LC2013" lcAssertive="0.879" lcLookaheadLeft="0.000" lcSpeedGain="0.000" lcStrategic="0.000" lcCooperative="0.000" lcKeepRight="0.000" lcPushy="0.000" actionStepLength="0.100"/>
		<vType id="cav8" tau="0.600" tauCACCToACC="1.574" length="5.000" width="1.800" accel="2.500" decel="4.000" emergencyDecel="9.000" vClass="custom2" carFollowModel="CACC" laneChangeModel="LC2013" lcAssertive="0.837" lcLookaheadLeft="0.000" lcSpeedGain="0.000" lcStrategic="0.000" lcCooperative="0.000" lcKeepRight="0.000" lcPushy="0.000" actionStepLength="0.100"/>
		<vType id="cav9" tau="0.600" tauCACCToACC="1.312" length="5.000" width="1.800" accel="2.500" decel="4.000" emergencyDecel="9.000" vClass="custom2" carFollowModel="CACC" laneChangeModel="LC2013" lcAssertive="0.831" lcLookaheadLeft="0.000" lcSpeedGain="0.000" lcStrategic="0.000" lcCooperative="0.000" lcKeepRight="0.000" lcPushy="0.000" actionStepLength="0.100"/>
		<vType id="cav10" tau="0.600" tauCACCToACC="1.573" length="5.000" width="1.800" accel="2.500" decel="4.000" emergencyDecel="9.000" vClass="custom2" carFollowModel="CACC" laneChangeModel="LC2013" lcAssertive="0.844" lcLookaheadLeft="0.000" lcSpeedGain="0.000" lcStrategic="0.000" lcCooperative="0.000" lcKeepRight="0.000" lcPushy="0.000" actionStepLength="0.100"/>
		<vType id="cav11" tau="0.600" tauCACCToACC="1.630" length="5.000" width="1.800" accel="2.500" decel="4.000" emergencyDecel="9.000" vClass="custom2" carFollowModel="CACC" laneChangeModel="LC2013" lcAssertive="0.808" lcLookaheadLeft="0.000" lcSpeedGain="0.000" lcStrategic="0.000" lcCooperative="0.000" lcKeepRight="0.000" lcPushy="0.000" actionStepLength="0.100"/>
		<vType id="cav12" tau="0.600" tauCACCToACC="1.314" length="5.000" width="1.800" accel="2.500" decel="4.000" emergencyDecel="9.000" vClass="custom2" carFollowModel="CACC" laneChangeModel="LC2013" lcAssertive="0.856" lcLookaheadLeft="0.000" lcSpeedGain="0.000" lcStrategic="0.000" lcCooperative="0.000" lcKeepRight="0.000" lcPushy="0.000" actionStepLength="0.100"/>
		<vType id="cav13" tau="0.600" tauCACCToACC="1.414" length="5.000" width="1.800" accel="2.500" decel="4.000" emergencyDecel="9.000" vClass="custom2" carFollowModel="CACC" laneChangeModel="LC2013" lcAssertive="0.869" lcLookaheadLeft="0.000" lcSpeedGain="0.000" lcStrategic="0.000" lcCooperative="0.000" lcKeepRight="0.000" lcPushy="0.000" actionStepLength="0.100"/>
		<vType id="cav14" tau="0.600" tauCACCToACC="1.588" length="5.000" width="1.800" accel="2.500" decel="4.000" emergencyDecel="9.000" vClass="custom2" carFollowModel="CACC" laneChangeModel="LC2013" lcAssertive="0.876" lcLookaheadLeft="0.000" lcSpeedGain="0.000" lcStrategic="0.000" lcCooperative="0.000" lcKeepRight="0.000" lcPushy="0.000" actionStepLength="0.100"/>
		<vType id="cav15" tau="0.600" tauCACCToACC="1.393" length="5.000" width="1.800" accel="2.500" decel="4.000" emergencyDecel="9.000" vClass="custom2" carFollowModel="CACC" laneChangeModel="LC2013" lcAssertive="0.853" lcLookaheadLeft="0.000" lcSpeedGain="0.000" lcStrategic="0.000" lcCooperative="0.000" lcKeepRight="0.000" lcPushy="0.000" actionStepLength="0.100"/>
		<vType id="cav16" tau="0.600" tauCACCToACC="1.784" length="5.000" width="1.800" accel="2.500" decel="4.000" emergencyDecel="9.000" vClass="custom2" carFollowModel="CACC" laneChangeModel="LC2013" lcAssertive="0.846" lcLookaheadLeft="0.000" lcSpeedGain="0.000" lcStrategic="0.000" lcCooperative="0.000" lcKeepRight="0.000" lcPushy="0.000" actionStepLength="0.100"/>
		<vType id="cav17" tau="0.600" tauCACCToACC="1.141" length="5.000" width="1.800" accel="2.500" decel="4.000" emergencyDecel="9.000" vClass="custom2" carFollowModel="CACC" laneChangeModel="LC2013" lcAssertive="0.867" lcLookaheadLeft="0.000" lcSpeedGain="0.000" lcStrategic="0.000" lcCooperative="0.000" lcKeepRight="0.000" lcPushy="0.000" actionStepLength="0.100"/>
		<vType id="cav18" tau="0.600" tauCACCToACC="1.258" length="5.000" width="1.800" accel="2.500" decel="4.000" emergencyDecel="9.000" vClass="custom2" carFollowModel="CACC" laneChangeModel="LC2013" lcAssertive="0.863" lcLookaheadLeft="0.000" lcSpeedGain="0.000" lcStrategic="0.000" lcCooperative="0.000" lcKeepRight="0.000" lcPushy="0.000" actionStepLength="0.100"/>
		<vType id="cav19" tau="0.600" tauCACCToACC="1.277" length="5.000" width="1.800" accel="2.500" decel="4.000" emergencyDecel="9.000" vClass="custom2" carFollowModel="CACC" laneChangeModel="LC2013" lcAssertive="0.826" lcLookaheadLeft="0.000" lcSpeedGain="0.000" lcStrategic="0.000" lcCooperative="0.000" lcKeepRight="0.000" lcPushy="0.000" actionStepLength="0.100"/>
		<vType id="cav20" tau="0.600" tauCACCToACC="1.156" length="5.000" width="1.800" accel="2.500" decel="4.000" emergencyDecel="9.000" vClass="custom2" carFollowModel="CACC" laneChangeModel="LC2013" lcAssertive="0.868" lcLookaheadLeft="0.000" lcSpeedGain="0.000" lcStrategic="0.000" lcCooperative="0.000" lcKeepRight="0.000" lcPushy="0.000" actionStepLength="0.100"/>
		<vType id="cav21" tau="0.600" tauCACCToACC="1.500" length="5.000" width="1.800" accel="2.500" decel="4.000" emergencyDecel="9.000" vClass="custom2" carFollowModel="CACC" laneChangeModel="LC2013" lcAssertive="0.831" lcLookaheadLeft="0.000" lcSpeedGain="0.000" lcStrategic="0.000" lcCooperative="0.000" lcKeepRight="0.000" lcPushy="0.000" actionStepLength="0.100"/>
		<vType id="cav22" tau="0.600" tauCACCToACC="1.544" length="5.000" width="1.800" accel="2.500" decel="4.000" emergencyDecel="9.000" vClass="custom2" carFollowModel="CACC" laneChangeModel="LC2013" lcAssertive="0.870" lcLookaheadLeft="0.000" lcSpeedGain="0.000" lcStrategic="0.000" lcCooperative="0.000" lcKeepRight="0.000" lcPushy="0.000" actionStepLength="0.100"/>
		<vType id="cav23" tau="0.600" tauCACCToACC="1.704" length="5.000" width="1.800" accel="2.500" decel="4.000" emergencyDecel="9.000" vClass="custom2" carFollowModel="CACC" laneChangeModel="LC2013" lcAssertive="0.843" lcLookaheadLeft="0.000" lcSpeedGain="0.000" lcStrategic="0.000" lcCooperative="0.000" lcKeepRight="0.000" lcPushy="0.000" actionStepLength="0.100"/>
		<vType id="cav24" tau="0.600" tauCACCToACC="1.223" length="5.000" width="1.800" accel="2.500" decel="4.000" emergencyDecel="9.000" vClass="custom2" carFollowModel="CACC" laneChangeModel="LC2013" lcAssertive="0.860" lcLookaheadLeft="0.000" lcSpeedGain="0.000" lcStrategic="0.000" lcCooperative="0.000" lcKeepRight="0.000" lcPushy="0.000" actionStepLength="0.100"/>
		<vType id="cav25" tau="0.600" tauCACCToACC="1.481" length="5.000" width="1.800" accel="2.500" decel="4.000" emergencyDecel="9.000" vClass="custom2" carFollowModel="CACC" laneChangeModel="LC2013" lcAssertive="0.847" lcLookaheadLeft="0.000" lcSpeedGain="0.000" lcStrategic="0.000" lcCooperative="0.000" lcKeepRight="0.000" lcPushy="0.000" actionStepLength="0.100"/>
		<vType id="cav26" tau="0.600" tauCACCToACC="1.550" length="5.000" width="1.800" accel="2.500" decel="4.000" emergencyDecel="9.000" vClass="custom2" carFollowModel="CACC" laneChangeModel="LC2013" lcAssertive="0.835" lcLookaheadLeft="0.000" lcSpeedGain="0.000" lcStrategic="0.000" lcCooperative="0.000" lcKeepRight="0.000" lcPushy="0.000" actionStepLength="0.100"/>
		<vType id="cav27" tau="0.600" tauCACCToACC="1.456" length="5.000" width="1.800" accel="2.500" decel="4.000" emergencyDecel="9.000" vClass="custom2" carFollowModel="CACC" laneChangeModel="LC2013" lcAssertive="0.833" lcLookaheadLeft="0.000" lcSpeedGain="0.000" lcStrategic="0.000" lcCooperative="0.000" lcKeepRight="0.000" lcPushy="0.000" actionStepLength="0.100"/>
		<vType id="cav28" tau="0.600" tauCACCToACC="1.365" length="5.000" width="1.800" accel="2.500" decel="4.000" emergencyDecel="9.000" vClass="custom2" carFollowModel="CACC" laneChangeModel="LC2013" lcAssertive="0.838" lcLookaheadLeft="0.000" lcSpeedGain="0.000" lcStrategic="0.000" lcCooperative="0.000" lcKeepRight="0.000" lcPushy="0.000" actionStepLength="0.100"/>
		<vType id="cav29" tau="0.600" tauCACCToACC="1.101" length="5.000" width="1.800" accel="2.500" decel="4.000" emergencyDecel="9.000" vClass="custom2" carFollowModel="CACC" laneChangeModel="LC2013" lcAssertive="0.823" lcLookaheadLeft="0.000" lcSpeedGain="0.000" lcStrategic="0.000" lcCooperative="0.000" lcKeepRight="0.000" lcPushy="0.000" actionStepLength="0.100"/>
		<vType id="cav30" tau="0.600" tauCACCToACC="1.387" length="5.000" width="1.800" accel="2.500" decel="4.000" emergencyDecel="9.000" vClass="custom2" carFollowModel="CACC" laneChangeModel="LC2013" lcAssertive="0.885" lcLookaheadLeft="0.000" lcSpeedGain="0.000" lcStrategic="0.000" lcCooperative="0.000" lcKeepRight="0.000" lcPushy="0.000" actionStepLength="0.100"/>
		<vType id="cav31" tau="0.600" tauCACCToACC="1.456" length="5.000" width="1.800" accel="2.500" decel="4.000" emergencyDecel="9.000" vClass="custom2" carFollowModel="CACC" laneChangeModel="LC2013" lcAssertive="0.863" lcLookaheadLeft="0.000" lcSpeedGain="0.000" lcStrategic="0.000" lcCooperative="0.000" lcKeepRight="0.000" lcPushy="0.000" actionStepLength="0.100"/>
		<vType id="cav32" tau="0.600" tauCACCToACC="1.257" length="5.000" width="1.800" accel="2.500" decel="4.000" emergencyDecel="9.000" vClass="custom2" carFollowModel="CACC" laneChangeModel="LC2013" lcAssertive="0.845" lcLookaheadLeft="0.000" lcSpeedGain="0.000" lcStrategic="0.000" lcCooperative="0.000" lcKeepRight="0.000" lcPushy="0.000" actionStepLength="0.100"/>
		<vType id="cav33" tau="0.600" tauCACCToACC="1.741" length="5.000" width="1.800" accel="2.500" decel="4.000" emergencyDecel="9.000" vClass="custom2" carFollowModel="CACC" laneChangeModel="LC2013" lcAssertive="0.845" lcLookaheadLeft="0.000" lcSpeedGain="0.000" lcStrategic="0.000" lcCooperative="0.000" lcKeepRight="0.000" lcPushy="0.000" actionStepLength="0.100"/>
		<vType id="cav34" tau="0.600" tauCACCToACC="1.665" length="5.000" width="1.800" accel="2.500" decel="4.000" emergencyDecel="9.000" vClass="custom2" carFollowModel="CACC" laneChangeModel="LC2013" lcAssertive="0.831" lcLookaheadLeft="0.000" lcSpeedGain="0.000" lcStrategic="0.000" lcCooperative="0.000" lcKeepRight="0.000" lcPushy="0.000" actionStepLength="0.100"/>
		<vType id="cav35" tau="0.600" tauCACCToACC="1.463" length="5.000" width="1.800" accel="2.500" decel="4.000" emergencyDecel="9.000" vClass="custom2" carFollowModel="CACC" laneChangeModel="LC2013" lcAssertive="0.836" lcLookaheadLeft="0.000" lcSpeedGain="0.000" lcStrategic="0.000" lcCooperative="0.000" lcKeepRight="0.000" lcPushy="0.000" actionStepLength="0.100"/>
		<vType id="cav36" tau="0.600" tauCACCToACC="1.518" length="5.000" width="1.800" accel="2.500" decel="4.000" emergencyDecel="9.000" vClass="custom2" carFollowModel="CACC" laneChangeModel="LC2013" lcAssertive="0.864" lcLookaheadLeft="0.000" lcSpeedGain="0.000" lcStrategic="0.000" lcCooperative="0.000" lcKeepRight="0.000" lcPushy="0.000" actionStepLength="0.100"/>
		<vType id="cav37" tau="0.600" tauCACCToACC="1.494" length="5.000" width="1.800" accel="2.500" decel="4.000" emergencyDecel="9.000" vClass="custom2" carFollowModel="CACC" laneChangeModel="LC2013" lcAssertive="0.846" lcLookaheadLeft="0.000" lcSpeedGain="0.000" lcStrategic="0.000" lcCooperative="0.000" lcKeepRight="0.000" lcPushy="0.000" actionStepLength="0.100"/>
		<vType id="cav38" tau="0.600" tauCACCToACC="1.127" length="5.000" width="1.800" accel="2.500" decel="4.000" emergencyDecel="9.000" vClass="custom2" carFollowModel="CACC" laneChangeModel="LC2013" lcAssertive="0.847" lcLookaheadLeft="0.000" lcSpeedGain="0.000" lcStrategic="0.000" lcCooperative="0.000" lcKeepRight="0.000" lcPushy="0.000" actionStepLength="0.100"/>
		<vType id="cav39" tau="0.600" tauCACCToACC="1.568" length="5.000" width="1.800" accel="2.500" decel="4.000" emergencyDecel="9.000" vClass="custom2" carFollowModel="CACC" laneChangeModel="LC2013" lcAssertive="0.833" lcLookaheadLeft="0.000" lcSpeedGain="0.000" lcStrategic="0.000" lcCooperative="0.000" lcKeepRight="0.000" lcPushy="0.000" actionStepLength="0.100"/>
		<vType id="cav40" tau="0.600" tauCACCToACC="1.557" length="5.000" width="1.800" accel="2.500" decel="4.000" emergencyDecel="9.000" vClass="custom2" carFollowModel="CACC" laneChangeModel="LC2013" lcAssertive="0.813" lcLookaheadLeft="0.000" lcSpeedGain="0.000" lcStrategic="0.000" lcCooperative="0.000" lcKeepRight="0.000" lcPushy="0.000" actionStepLength="0.100"/>
		<vType id="cav41" tau="0.600" tauCACCToACC="1.507" length="5.000" width="1.800" accel="2.500" decel="4.000" emergencyDecel="9.000" vClass="custom2" carFollowModel="CACC" laneChangeModel="LC2013" lcAssertive="0.832" lcLookaheadLeft="0.000" lcSpeedGain="0.000" lcStrategic="0.000" lcCooperative="0.000" lcKeepRight="0.000" lcPushy="0.000" actionStepLength="0.100"/>
		<vType id="cav42" tau="0.600" tauCACCToACC="1.600" length="5.000" width="1.800" accel="2.500" decel="4.000" emergencyDecel="9.000" vClass="custom2" carFollowModel="CACC" laneChangeModel="LC2013" lcAssertive="0.840" lcLookaheadLeft="0.000" lcSpeedGain="0.000" lcStrategic="0.000" lcCooperative="0.000" lcKeepRight="0.000" lcPushy="0.000" actionStepLength="0.100"/>
		<vType id="cav43" tau="0.600" tauCACCToACC="1.678" length="5.000" width="1.800" accel="2.500" decel="4.000" emergencyDecel="9.000" vClass="custom2" carFollowModel="CACC" laneChangeModel="LC2013" lcAssertive="0.859" lcLookaheadLeft="0.000" lcSpeedGain="0.000" lcStrategic="0.000" lcCooperative="0.000" lcKeepRight="0.000" lcPushy="0.000" actionStepLength="0.100"/>
		<vType id="cav44" tau="0.600" tauCACCToACC="1.433" length="5.000" width="1.800" accel="2.500" decel="4.000" emergencyDecel="9.000" vClass="custom2" carFollowModel="CACC" laneChangeModel="LC2013" lcAssertive="0.862" lcLookaheadLeft="0.000" lcSpeedGain="0.000" lcStrategic="0.000" lcCooperative="0.000" lcKeepRight="0.000" lcPushy="0.000" actionStepLength="0.100"/>
		<vType id="cav45" tau="0.600" tauCACCToACC="1.142" length="5.000" width="1.800" accel="2.500" decel="4.000" emergencyDecel="9.000" vClass="custom2" carFollowModel="CACC" laneChangeModel="LC2013" lcAssertive="0.835" lcLookaheadLeft="0.000" lcSpeedGain="0.000" lcStrategic="0.000" lcCooperative="0.000" lcKeepRight="0.000" lcPushy="0.000" actionStepLength="0.100"/>
		<vType id="cav46" tau="0.600" tauCACCToACC="1.584" length="5.000" width="1.800" accel="2.500" decel="4.000" emergencyDecel="9.000" vClass="custom2" carFollowModel="CACC" laneChangeModel="LC2013" lcAssertive="0.825" lcLookaheadLeft="0.000" lcSpeedGain="0.000" lcStrategic="0.000" lcCooperative="0.000" lcKeepRight="0.000" lcPushy="0.000" actionStepLength="0.100"/>
		<vType id="cav47" tau="0.600" tauCACCToACC="1.229" length="5.000" width="1.800" accel="2.500" decel="4.000" emergencyDecel="9.000" vClass="custom2" carFollowModel="CACC" laneChangeModel="LC2013" lcAssertive="0.831" lcLookaheadLeft="0.000" lcSpeedGain="0.000" lcStrategic="0.000" lcCooperative="0.000" lcKeepRight="0.000" lcPushy="0.000" actionStepLength="0.100"/>
		<vType id="cav48" tau="0.600" tauCACCToACC="1.447" length="5.000" width="1.800" accel="2.500" decel="4.000" emergencyDecel="9.000" vClass="custom2" carFollowModel="CACC" laneChangeModel="LC2013" lcAssertive="0.889" lcLookaheadLeft="0.000" lcSpeedGain="0.000" lcStrategic="0.000" lcCooperative="0.000" lcKeepRight="0.000" lcPushy="0.000" actionStepLength="0.100"/>
		<vType id="cav49" tau="0.600" tauCACCToACC="1.655" length="5.000" width="1.800" accel="2.500" decel="4.000" emergencyDecel="9.000" vClass="custom2" carFollowModel="CACC" laneChangeModel="LC2013" lcAssertive="0.820" lcLookaheadLeft="0.000" lcSpeedGain="0.000" lcStrategic="0.000" lcCooperative="0.000" lcKeepRight="0.000" lcPushy="0.000" actionStepLength="0.100"/>
		<vType id="cav50" tau="0.600" tauCACCToACC="1.302" length="5.000" width="1.800" accel="2.500" decel="4.000" emergencyDecel="9.000" vClass="custom2" carFollowModel="CACC" laneChangeModel="LC2013" lcAssertive="0.859" lcLookaheadLeft="0.000" lcSpeedGain="0.000" lcStrategic="0.000" lcCooperative="0.000" lcKeepRight="0.000" lcPushy="0.000" actionStepLength="0.100"/>
		<vType id="cav51" tau="0.600" tauCACCToACC="1.563" length="5.000" width="1.800" accel="2.500" decel="4.000" emergencyDecel="9.000" vClass="custom2" carFollowModel="CACC" laneChangeModel="LC2013" lcAssertive="0.846" lcLookaheadLeft="0.000" lcSpeedGain="0.000" lcStrategic="0.000" lcCooperative="0.000" lcKeepRight="0.000" lcPushy="0.000" actionStepLength="0.100"/>
		<vType id="cav52" tau="0.600" tauCACCToACC="1.464" length="5.000" width="1.800" accel="2.500" decel="4.000" emergencyDecel="9.000" vClass="custom2" carFollowModel="CACC" laneChangeModel="LC2013" lcAssertive="0.856" lcLookaheadLeft="0.000" lcSpeedGain="0.000" lcStrategic="0.000" lcCooperative="0.000" lcKeepRight="0.000" lcPushy="0.000" actionStepLength="0.100"/>
		<vType id="cav53" tau="0.600" tauCACCToACC="1.685" length="5.000" width="1.800" accel="2.500" decel="4.000" emergencyDecel="9.000" vClass="custom2" carFollowModel="CACC" laneChangeModel="LC2013" lcAssertive="0.847" lcLookaheadLeft="0.000" lcSpeedGain="0.000" lcStrategic="0.000" lcCooperative="0.000" lcKeepRight="0.000" lcPushy="0.000" actionStepLength="0.100"/>
		<vType id="cav54" tau="0.600" tauCACCToACC="1.805" length="5.000" width="1.800" accel="2.500" decel="4.000" emergencyDecel="9.000" vClass="custom2" carFollowModel="CACC" laneChangeModel="LC2013" lcAssertive="0.877" lcLookaheadLeft="0.000" lcSpeedGain="0.000" lcStrategic="0.000" lcCooperative="0.000" lcKeepRight="0.000" lcPushy="0.000" actionStepLength="0.100"/>
		<vType id="cav55" tau="0.600" tauCACCToACC="1.362" length="5.000" width="1.800" accel="2.500" decel="4.000" emergencyDecel="9.000" vClass="custom2" carFollowModel="CACC" laneChangeModel="LC2013" lcAssertive="0.867" lcLookaheadLeft="0.000" lcSpeedGain="0.000" lcStrategic="0.000" lcCooperative="0.000" lcKeepRight="0.000" lcPushy="0.000" actionStepLength="0.100"/>
		<vType id="cav56" tau="0.600" tauCACCToACC="1.404" length="5.000" width="1.800" accel="2.500" decel="4.000" emergencyDecel="9.000" vClass="custom2" carFollowModel="CACC" laneChangeModel="LC2013" lcAssertive="0.842" lcLookaheadLeft="0.000" lcSpeedGain="0.000" lcStrategic="0.000" lcCooperative="0.000" lcKeepRight="0.000" lcPushy="0.000" actionStepLength="0.100"/>
		<vType id="cav57" tau="0.600" tauCACCToACC="1.645" length="5.000" width="1.800" accel="2.500" decel="4.000" emergencyDecel="9.000" vClass="custom2" carFollowModel="CACC" laneChangeModel="LC2013" lcAssertive="0.861" lcLookaheadLeft="0.000" lcSpeedGain="0.000" lcStrategic="0.000" lcCooperative="0.000" lcKeepRight="0.000" lcPushy="0.000" actionStepLength="0.100"/>
		<vType id="cav58" tau="0.600" tauCACCToACC="1.480" length="5.000" width="1.800" accel="2.500" decel="4.000" emergencyDecel="9.000" vClass="custom2" carFollowModel="CACC" laneChangeModel="LC2013" lcAssertive="0.863" lcLookaheadLeft="0.000" lcSpeedGain="0.000" lcStrategic="0.000" lcCooperative="0.000" lcKeepRight="0.000" lcPushy="0.000" actionStepLength="0.100"/>
		<vType id="cav59" tau="0.600" tauCACCToACC="1.722" length="5.000" width="1.800" accel="2.500" decel="4.000" emergencyDecel="9.000" vClass="custom2" carFollowModel="CACC" laneChangeModel="LC2013" lcAssertive="0.858" lcLookaheadLeft="0.000" lcSpeedGain="0.000" lcStrategic="0.000" lcCooperative="0.000" lcKeepRight="0.000" lcPushy="0.000" actionStepLength="0.100"/>
		<vType id="cav60" tau="0.600" tauCACCToACC="1.716" length="5.000" width="1.800" accel="2.500" decel="4.000" emergencyDecel="9.000" vClass="custom2" carFollowModel="CACC" laneChangeModel="LC2013" lcAssertive="0.826" lcLookaheadLeft="0.000" lcSpeedGain="0.000" lcStrategic="0.000" lcCooperative="0.000" lcKeepRight="0.000" lcPushy="0.000" actionStepLength="0.100"/>
		<vType id="cav61" tau="0.600" tauCACCToACC="1.614" length="5.000" width="1.800" accel="2.500" decel="4.000" emergencyDecel="9.000" vClass="custom2" carFollowModel="CACC" laneChangeModel="LC2013" lcAssertive="0.857" lcLookaheadLeft="0.000" lcSpeedGain="0.000" lcStrategic="0.000" lcCooperative="0.000" lcKeepRight="0.000" lcPushy="0.000" actionStepLength="0.100"/>
		<vType id="cav62" tau="0.600" tauCACCToACC="1.407" length="5.000" width="1.800" accel="2.500" decel="4.000" emergencyDecel="9.000" vClass="custom2" carFollowModel="CACC" laneChangeModel="LC2013" lcAssertive="0.821" lcLookaheadLeft="0.000" lcSpeedGain="0.000" lcStrategic="0.000" lcCooperative="0.000" lcKeepRight="0.000" lcPushy="0.000" actionStepLength="0.100"/>
		<vType id="cav63" tau="0.600" tauCACCToACC="1.547" length="5.000" width="1.800" accel="2.500" decel="4.000" emergencyDecel="9.000" vClass="custom2" carFollowModel="CACC" laneChangeModel="LC2013" lcAssertive="0.875" lcLookaheadLeft="0.000" lcSpeedGain="0.000" lcStrategic="0.000" lcCooperative="0.000" lcKeepRight="0.000" lcPushy="0.000" actionStepLength="0.100"/>
		<vType id="cav64" tau="0.600" tauCACCToACC="1.450" length="5.000" width="1.800" accel="2.500" decel="4.000" emergencyDecel="9.000" vClass="custom2" carFollowModel="CACC" laneChangeModel="LC2013" lcAssertive="0.858" lcLookaheadLeft="0.000" lcSpeedGain="0.000" lcStrategic="0.000" lcCooperative="0.000" lcKeepRight="0.000" lcPushy="0.000" actionStepLength="0.100"/>
		<vType id="cav65" tau="0.600" tauCACCToACC="1.608" length="5.000" width="1.800" accel="2.500" decel="4.000" emergencyDecel="9.000" vClass="custom2" carFollowModel="CACC" laneChangeModel="LC2013" lcAssertive="0.839" lcLookaheadLeft="0.000" lcSpeedGain="0.000" lcStrategic="0.000" lcCooperative="0.000" lcKeepRight="0.000" lcPushy="0.000" actionStepLength="0.100"/>
		<vType id="cav66" tau="0.600" tauCACCToACC="1.452" length="5.000" width="1.800" accel="2.500" decel="4.000" emergencyDecel="9.000" vClass="custom2" carFollowModel="CACC" laneChangeModel="LC2013" lcAssertive="0.828" lcLookaheadLeft="0.000" lcSpeedGain="0.000" lcStrategic="0.000" lcCooperative="0.000" lcKeepRight="0.000" lcPushy="0.000" actionStepLength="0.100"/>
		<vType id="cav67" tau="0.600" tauCACCToACC="1.859" length="5.000" width="1.800" accel="2.500" decel="4.000" emergencyDecel="9.000" vClass="custom2" carFollowModel="CACC" laneChangeModel="LC2013" lcAssertive="0.835" lcLookaheadLeft="0.000" lcSpeedGain="0.000" lcStrategic="0.000" lcCooperative="0.000" lcKeepRight="0.000" lcPushy="0.000" actionStepLength="0.100"/>
		<vType id="cav68" tau="0.600" tauCACCToACC="1.443" length="5.000" width="1.800" accel="2.500" decel="4.000" emergencyDecel="9.000" vClass="custom2" carFollowModel="CACC" laneChangeModel="LC2013" lcAssertive="0.860" lcLookaheadLeft="0.000" lcSpeedGain="0.000" lcStrategic="0.000" lcCooperative="0.000" lcKeepRight="0.000" lcPushy="0.000" actionStepLength="0.100"/>
		<vType id="cav69" tau="0.600" tauCACCToACC="1.475" length="5.000" width="1.800" accel="2.500" decel="4.000" emergencyDecel="9.000" vClass="custom2" carFollowModel="CACC" laneChangeModel="LC2013" lcAssertive="0.841" lcLookaheadLeft="0.000" lcSpeedGain="0.000" lcStrategic="0.000" lcCooperative="0.000" lcKeepRight="0.000" lcPushy="0.000" actionStepLength="0.100"/>
		<vType id="cav70" tau="0.600" tauCACCToACC="1.622" length="5.000" width="1.800" accel="2.500" decel="4.000" emergencyDecel="9.000" vClass="custom2" carFollowModel="CACC" laneChangeModel="LC2013" lcAssertive="0.821" lcLookaheadLeft="0.000" lcSpeedGain="0.000" lcStrategic="0.000" lcCooperative="0.000" lcKeepRight="0.000" lcPushy="0.000" actionStepLength="0.100"/>
		<vType id="cav71" tau="0.600" tauCACCToACC="1.569" length="5.000" width="1.800" accel="2.500" decel="4.000" emergencyDecel="9.000" vClass="custom2" carFollowModel="CACC" laneChangeModel="LC2013" lcAssertive="0.894" lcLookaheadLeft="0.000" lcSpeedGain="0.000" lcStrategic="0.000" lcCooperative="0.000" lcKeepRight="0.000" lcPushy="0.000" actionStepLength="0.100"/>
		<vType id="cav72" tau="0.600" tauCACCToACC="1.576" length="5.000" width="1.800" accel="2.500" decel="4.000" emergencyDecel="9.000" vClass="custom2" carFollowModel="CACC" laneChangeModel="LC2013" lcAssertive="0.833" lcLookaheadLeft="0.000" lcSpeedGain="0.000" lcStrategic="0.000" lcCooperative="0.000" lcKeepRight="0.000" lcPushy="0.000" actionStepLength="0.100"/>
		<vType id="cav73" tau="0.600" tauCACCToACC="1.421" length="5.000" width="1.800" accel="2.500" decel="4.000" emergencyDecel="9.000" vClass="custom2" carFollowModel="CACC" laneChangeModel="LC2013" lcAssertive="0.815" lcLookaheadLeft="0.000" lcSpeedGain="0.000" lcStrategic="0.000" lcCooperative="0.000" lcKeepRight="0.000" lcPushy="0.000" actionStepLength="0.100"/>
		<vType id="cav74" tau="0.600" tauCACCToACC="1.497" length="5.000" width="1.800" accel="2.500" decel="4.000" emergencyDecel="9.000" vClass="custom2" carFollowModel="CACC" laneChangeModel="LC2013" lcAssertive="0.887" lcLookaheadLeft="0.000" lcSpeedGain="0.000" lcStrategic="0.000" lcCooperative="0.000" lcKeepRight="0.000" lcPushy="0.000" actionStepLength="0.100"/>
		<vType id="cav75" tau="0.600" tauCACCToACC="1.265" length="5.000" width="1.800" accel="2.500" decel="4.000" emergencyDecel="9.000" vClass="custom2" carFollowModel="CACC" laneChangeModel="LC2013" lcAssertive="0.851" lcLookaheadLeft="0.000" lcSpeedGain="0.000" lcStrategic="0.000" lcCooperative="0.000" lcKeepRight="0.000" lcPushy="0.000" actionStepLength="0.100"/>
		<vType id="cav76" tau="0.600" tauCACCToACC="1.425" length="5.000" width="1.800" accel="2.500" decel="4.000" emergencyDecel="9.000" vClass="custom2" carFollowModel="CACC" laneChangeModel="LC2013" lcAssertive="0.885" lcLookaheadLeft="0.000" lcSpeedGain="0.000" lcStrategic="0.000" lcCooperative="0.000" lcKeepRight="0.000" lcPushy="0.000" actionStepLength="0.100"/>
		<vType id="cav77" tau="0.600" tauCACCToACC="1.652" length="5.000" width="1.800" accel="2.500" decel="4.000" emergencyDecel="9.000" vClass="custom2" carFollowModel="CACC" laneChangeModel="LC2013" lcAssertive="0.875" lcLookaheadLeft="0.000" lcSpeedGain="0.000" lcStrategic="0.000" lcCooperative="0.000" lcKeepRight="0.000" lcPushy="0.000" actionStepLength="0.100"/>
		<vType id="cav78" tau="0.600" tauCACCToACC="1.488" length="5.000" width="1.800" accel="2.500" decel="4.000" emergencyDecel="9.000" vClass="custom2" carFollowModel="CACC" laneChangeModel="LC2013" lcAssertive="0.826" lcLookaheadLeft="0.000" lcSpeedGain="0.000" lcStrategic="0.000" lcCooperative="0.000" lcKeepRight="0.000" lcPushy="0.000" actionStepLength="0.100"/>
		<vType id="cav79" tau="0.600" tauCACCToACC="1.691" length="5.000" width="1.800" accel="2.500" decel="4.000" emergencyDecel="9.000" vClass="custom2" carFollowModel="CACC" laneChangeModel="LC2013" lcAssertive="0.856" lcLookaheadLeft="0.000" lcSpeedGain="0.000" lcStrategic="0.000" lcCooperative="0.000" lcKeepRight="0.000" lcPushy="0.000" actionStepLength="0.100"/>
		<vType id="cav80" tau="0.600" tauCACCToACC="1.297" length="5.000" width="1.800" accel="2.500" decel="4.000" emergencyDecel="9.000" vClass="custom2" carFollowModel="CACC" laneChangeModel="LC2013" lcAssertive="0.838" lcLookaheadLeft="0.000" lcSpeedGain="0.000" lcStrategic="0.000" lcCooperative="0.000" lcKeepRight="0.000" lcPushy="0.000" actionStepLength="0.100"/>