<?xml version="1.0" encoding="UTF-8"?>

<!-- generated on 2025-11-04 21:08:32 by Eclipse SUMO netconvert Version 1.19.0
<configuration xmlns:xsi="http://www.w3.org/2001/XMLSchema-instance" xsi:noNamespaceSchemaLocation="http://sumo.dlr.de/xsd/netconvertConfiguration.xsd">

    <input>
        <node-files value="nodes.xml"/>
        <edge-files value="edge.xml"/>
        <connection-files value="connection.xml"/>
    </input>

    <output>
        <output-file value="net.net.xml"/>
    </output>

    <junctions>
        <no-turnarounds value="true"/>
    </junctions>

</configuration>
-->

<net version="1.16" junctionCornerDetail="5" limitTurnSpeed="5.50" xmlns:xsi="http://www.w3.org/2001/XMLSchema-instance" xsi:noNamespaceSchemaLocation="http://sumo.dlr.de/xsd/net_file.xsd">

    <location netOffset="0.00,0.00" convBoundary="0.00,0.00,4000.00,0.00" origBoundary="0.00,0.00,4000.00,0.00" projParameter="!"/>

    <edge id=":10_0" function="internal">
        <lane id=":10_0_0" index="0" speed="25.00" length="0.10" width="3.75" shape="2600.00,-9.38 2600.00,-9.38"/>
        <lane id=":10_0_1" index="1" speed="30.56" length="0.10" width="3.75" shape="2600.00,-5.62 2600.00,-5.62"/>
        <lane id=":10_0_2" index="2" speed="33.33" length="0.10" width="3.75" shape="2600.00,-1.88 2600.00,-1.88"/>
    </edge>
    <edge id=":11_0" function="internal">
        <lane id=":11_0_0" index="0" speed="25.00" length="0.10" width="3.75" shape="2800.00,-9.38 2800.00,-9.38"/>
        <lane id=":11_0_1" index="1" speed="30.56" length="0.10" width="3.75" shape="2800.00,-5.62 2800.00,-5.62"/>
        <lane id=":11_0_2" index="2" speed="33.33" length="0.10" width="3.75" shape="2800.00,-1.88 2800.00,-1.88"/>
    </edge>
    <edge id=":12_0" function="internal">
        <lane id=":12_0_0" index="0" speed="27.78" length="8.54" width="3.75" shape="2996.00,-9.38 2998.49,-8.79 3000.00,-7.50 3001.51,-6.21 3004.00,-5.62"/>
        <lane id=":12_0_1" index="1" speed="30.56" length="8.54" width="3.75" shape="2996.00,-5.62 3004.00,-5.62"/>
        <lane id=":12_0_2" index="2" speed="31.95" length="8.54" width="3.75" shape="2996.00,-5.62 2998.49,-5.04 3000.00,-3.75 3001.51,-2.46 3004.00,-1.88"/>
        <lane id=":12_0_3" index="3" speed="33.33" length="8.54" width="3.75" shape="2996.00,-1.88 3004.00,-1.88"/>
    </edge>
    <edge id=":13_0" function="internal">
        <lane id=":13_0_0" index="0" speed="27.78" length="8.54" width="3.75" shape="3296.00,-5.62 3298.49,-6.21 3300.00,-7.50 3301.51,-8.79 3304.00,-9.38"/>
        <lane id=":13_0_1" index="1" speed="30.56" length="8.54" width="3.75" shape="3296.00,-5.62 3304.00,-5.62"/>
        <lane id=":13_0_2" index="2" speed="31.95" length="8.54" width="3.75" shape="3296.00,-1.88 3298.49,-2.46 3300.00,-3.75 3301.51,-5.04 3304.00,-5.62"/>
        <lane id=":13_0_3" index="3" speed="33.33" length="8.54" width="3.75" shape="3296.00,-1.88 3304.00,-1.88"/>
    </edge>
    <edge id=":2_0" function="internal">
        <lane id=":2_0_0" index="0" speed="25.00" length="0.10" width="3.75" shape="1000.00,-9.38 1000.00,-9.38"/>
        <lane id=":2_0_1" index="1" speed="30.56" length="0.10" width="3.75" shape="1000.00,-5.62 1000.00,-5.62"/>
        <lane id=":2_0_2" index="2" speed="33.33" length="0.10" width="3.75" shape="1000.00,-1.88 1000.00,-1.88"/>
    </edge>
    <edge id=":3_0" function="internal">
        <lane id=":3_0_0" index="0" speed="25.00" length="0.10" width="3.75" shape="1200.00,-9.38 1200.00,-9.38"/>
        <lane id=":3_0_1" index="1" speed="30.56" length="0.10" width="3.75" shape="1200.00,-5.62 1200.00,-5.62"/>
        <lane id=":3_0_2" index="2" speed="33.33" length="0.10" width="3.75" shape="1200.00,-1.88 1200.00,-1.88"/>
    </edge>
    <edge id=":4_0" function="internal">
        <lane id=":4_0_0" index="0" speed="25.00" length="0.10" width="3.75" shape="1400.00,-9.38 1400.00,-9.38"/>
        <lane id=":4_0_1" index="1" speed="30.56" length="0.10" width="3.75" shape="1400.00,-5.62 1400.00,-5.62"/>
        <lane id=":4_0_2" index="2" speed="33.33" length="0.10" width="3.75" shape="1400.00,-1.88 1400.00,-1.88"/>
    </edge>
    <edge id=":5_0" function="internal">
        <lane id=":5_0_0" index="0" speed="25.00" length="0.10" width="3.75" shape="1600.00,-9.38 1600.00,-9.38"/>
        <lane id=":5_0_1" index="1" speed="30.56" length="0.10" width="3.75" shape="1600.00,-5.62 1600.00,-5.62"/>
        <lane id=":5_0_2" index="2" speed="33.33" length="0.10" width="3.75" shape="1600.00,-1.88 1600.00,-1.88"/>
    </edge>
    <edge id=":6_0" function="internal">
        <lane id=":6_0_0" index="0" speed="25.00" length="0.10" width="3.75" shape="1800.00,-9.38 1800.00,-9.38"/>
        <lane id=":6_0_1" index="1" speed="30.56" length="0.10" width="3.75" shape="1800.00,-5.62 1800.00,-5.62"/>
        <lane id=":6_0_2" index="2" speed="33.33" length="0.10" width="3.75" shape="1800.00,-1.88 1800.00,-1.88"/>
    </edge>
    <edge id=":7_0" function="internal">
        <lane id=":7_0_0" index="0" speed="25.00" length="0.10" width="3.75" shape="2000.00,-9.38 2000.00,-9.38"/>
        <lane id=":7_0_1" index="1" speed="30.56" length="0.10" width="3.75" shape="2000.00,-5.62 2000.00,-5.62"/>
        <lane id=":7_0_2" index="2" speed="33.33" length="0.10" width="3.75" shape="2000.00,-1.88 2000.00,-1.88"/>
    </edge>
    <edge id=":8_0" function="internal">
        <lane id=":8_0_0" index="0" speed="25.00" length="0.10" width="3.75" shape="2200.00,-9.38 2200.00,-9.38"/>
        <lane id=":8_0_1" index="1" speed="30.56" length="0.10" width="3.75" shape="2200.00,-5.62 2200.00,-5.62"/>
        <lane id=":8_0_2" index="2" speed="33.33" length="0.10" width="3.75" shape="2200.00,-1.88 2200.00,-1.88"/>
    </edge>
    <edge id=":9_0" function="internal">
        <lane id=":9_0_0" index="0" speed="25.00" length="0.10" width="3.75" shape="2400.00,-9.38 2400.00,-9.38"/>
        <lane id=":9_0_1" index="1" speed="30.56" length="0.10" width="3.75" shape="2400.00,-5.62 2400.00,-5.62"/>
        <lane id=":9_0_2" index="2" speed="33.33" length="0.10" width="3.75" shape="2400.00,-1.88 2400.00,-1.88"/>
    </edge>

    <edge id="1" from="1" to="2" priority="-1">
        <lane id="1_0" index="0" speed="25.00" length="1000.00" width="3.75" shape="0.00,-9.38 1000.00,-9.38"/>
        <lane id="1_1" index="1" speed="30.56" length="1000.00" width="3.75" shape="0.00,-5.62 1000.00,-5.62"/>
        <lane id="1_2" index="2" speed="33.33" length="1000.00" width="3.75" shape="0.00,-1.88 1000.00,-1.88"/>
    </edge>
    <edge id="10" from="10" to="11" priority="-1">
        <lane id="10_0" index="0" speed="25.00" length="200.00" width="3.75" shape="2600.00,-9.38 2800.00,-9.38"/>
        <lane id="10_1" index="1" speed="30.56" length="200.00" width="3.75" shape="2600.00,-5.62 2800.00,-5.62"/>
        <lane id="10_2" index="2" speed="33.33" length="200.00" width="3.75" shape="2600.00,-1.88 2800.00,-1.88"/>
    </edge>
    <edge id="11" from="11" to="12" priority="-1">
        <lane id="11_0" index="0" speed="25.00" length="196.00" width="3.75" shape="2800.00,-9.38 2996.00,-9.38"/>
        <lane id="11_1" index="1" speed="30.56" length="196.00" width="3.75" shape="2800.00,-5.62 2996.00,-5.62"/>
        <lane id="11_2" index="2" speed="33.33" length="196.00" width="3.75" shape="2800.00,-1.88 2996.00,-1.88"/>
    </edge>
    <edge id="12" from="12" to="13" priority="-1">
        <lane id="12_0" index="0" speed="30.56" length="292.00" width="3.75" shape="3004.00,-5.62 3296.00,-5.62"/>
        <lane id="12_1" index="1" speed="33.33" length="292.00" width="3.75" shape="3004.00,-1.88 3296.00,-1.88"/>
    </edge>
    <edge id="13" from="13" to="14" priority="-1">
        <lane id="13_0" index="0" speed="25.00" length="696.00" width="3.75" shape="3304.00,-9.38 4000.00,-9.38"/>
        <lane id="13_1" index="1" speed="30.56" length="696.00" width="3.75" shape="3304.00,-5.62 4000.00,-5.62"/>
        <lane id="13_2" index="2" speed="33.33" length="696.00" width="3.75" shape="3304.00,-1.88 4000.00,-1.88"/>
    </edge>
    <edge id="2" from="2" to="3" priority="-1">
        <lane id="2_0" index="0" speed="25.00" length="200.00" width="3.75" shape="1000.00,-9.38 1200.00,-9.38"/>
        <lane id="2_1" index="1" speed="30.56" length="200.00" width="3.75" shape="1000.00,-5.62 1200.00,-5.62"/>
        <lane id="2_2" index="2" speed="33.33" length="200.00" width="3.75" shape="1000.00,-1.88 1200.00,-1.88"/>
    </edge>
    <edge id="3" from="3" to="4" priority="-1">
        <lane id="3_0" index="0" speed="25.00" length="200.00" width="3.75" shape="1200.00,-9.38 1400.00,-9.38"/>
        <lane id="3_1" index="1" speed="30.56" length="200.00" width="3.75" shape="1200.00,-5.62 1400.00,-5.62"/>
        <lane id="3_2" index="2" speed="33.33" length="200.00" width="3.75" shape="1200.00,-1.88 1400.00,-1.88"/>
    </edge>
    <edge id="4" from="4" to="5" priority="-1">
        <lane id="4_0" index="0" speed="25.00" length="200.00" width="3.75" shape="1400.00,-9.38 1600.00,-9.38"/>
        <lane id="4_1" index="1" speed="30.56" length="200.00" width="3.75" shape="1400.00,-5.62 1600.00,-5.62"/>
        <lane id="4_2" index="2" speed="33.33" length="200.00" width="3.75" shape="1400.00,-1.88 1600.00,-1.88"/>
    </edge>
    <edge id="5" from="5" to="6" priority="-1">
        <lane id="5_0" index="0" speed="25.00" length="200.00" width="3.75" shape="1600.00,-9.38 1800.00,-9.38"/>
        <lane id="5_1" index="1" speed="30.56" length="200.00" width="3.75" shape="1600.00,-5.62 1800.00,-5.62"/>
        <lane id="5_2" index="2" speed="33.33" length="200.00" width="3.75" shape="1600.00,-1.88 1800.00,-1.88"/>
    </edge>
    <edge id="6" from="6" to="7" priority="-1">
        <lane id="6_0" index="0" speed="25.00" length="200.00" width="3.75" shape="1800.00,-9.38 2000.00,-9.38"/>
        <lane id="6_1" index="1" speed="30.56" length="200.00" width="3.75" shape="1800.00,-5.62 2000.00,-5.62"/>
        <lane id="6_2" index="2" speed="33.33" length="200.00" width="3.75" shape="1800.00,-1.88 2000.00,-1.88"/>
    </edge>
    <edge id="7" from="7" to="8" priority="-1">
        <lane id="7_0" index="0" speed="25.00" length="200.00" width="3.75" shape="2000.00,-9.38 2200.00,-9.38"/>
        <lane id="7_1" index="1" speed="30.56" length="200.00" width="3.75" shape="2000.00,-5.62 2200.00,-5.62"/>
        <lane id="7_2" index="2" speed="33.33" length="200.00" width="3.75" shape="2000.00,-1.88 2200.00,-1.88"/>
    </edge>
    <edge id="8" from="8" to="9" priority="-1">
        <lane id="8_0" index="0" speed="25.00" length="200.00" width="3.75" shape="2200.00,-9.38 2400.00,-9.38"/>
        <lane id="8_1" index="1" speed="30.56" length="200.00" width="3.75" shape="2200.00,-5.62 2400.00,-5.62"/>
        <lane id="8_2" index="2" speed="33.33" length="200.00" width="3.75" shape="2200.00,-1.88 2400.00,-1.88"/>
    </edge>
    <edge id="9" from="9" to="10" priority="-1">
        <lane id="9_0" index="0" speed="25.00" length="200.00" width="3.75" shape="2400.00,-9.38 2600.00,-9.38"/>
        <lane id="9_1" index="1" speed="30.56" length="200.00" width="3.75" shape="2400.00,-5.62 2600.00,-5.62"/>
        <lane id="9_2" index="2" speed="33.33" length="200.00" width="3.75" shape="2400.00,-1.88 2600.00,-1.88"/>
    </edge>

    <junction id="1" type="dead_end" x="0.00" y="0.00" incLanes="" intLanes="" shape="0.00,0.00 0.00,-11.25"/>
    <junction id="10" type="priority" x="2600.00" y="0.00" incLanes="9_0 9_1 9_2" intLanes=":10_0_0 :10_0_1 :10_0_2" shape="2600.00,0.00 2600.00,-11.25 2600.00,0.00">
        <request index="0" response="000" foes="000" cont="0"/>
        <request index="1" response="000" foes="000" cont="0"/>
        <request index="2" response="000" foes="000" cont="0"/>
    </junction>
    <junction id="11" type="priority" x="2800.00" y="0.00" incLanes="10_0 10_1 10_2" intLanes=":11_0_0 :11_0_1 :11_0_2" shape="2800.00,0.00 2800.00,-11.25 2800.00,0.00">
        <request index="0" response="000" foes="000" cont="0"/>
        <request index="1" response="000" foes="000" cont="0"/>
        <request index="2" response="000" foes="000" cont="0"/>
    </junction>
    <junction id="12" type="priority" x="3000.00" y="0.00" incLanes="11_0 11_1 11_2" intLanes=":12_0_0 :12_0_1 :12_0_2 :12_0_3" shape="3004.00,0.00 3004.00,-7.50 3000.94,-8.47 2999.06,-10.28 2997.82,-10.97 2996.00,-11.25 2996.00,0.00">
        <request index="0" response="0010" foes="0010" cont="0"/>
        <request index="1" response="0000" foes="0001" cont="0"/>
        <request index="2" response="1000" foes="1000" cont="0"/>
        <request index="3" response="0000" foes="0100" cont="0"/>
    </junction>
    <junction id="13" type="priority" x="3300.00" y="0.00" incLanes="12_0 12_1" intLanes=":13_0_0 :13_0_1 :13_0_2 :13_0_3" shape="3304.00,0.00 3304.00,-11.25 3300.94,-10.28 3299.06,-8.47 3297.82,-7.78 3296.00,-7.50 3296.00,0.00">
        <request index="0" response="0000" foes="0000" cont="0"/>
        <request index="1" response="0100" foes="0100" cont="0"/>
        <request index="2" response="0000" foes="0010" cont="0"/>
        <request index="3" response="0000" foes="0000" cont="0"/>
    </junction>
    <junction id="14" type="dead_end" x="4000.00" y="0.00" incLanes="13_0 13_1 13_2" intLanes="" shape="4000.00,-11.25 4000.00,0.00"/>
    <junction id="2" type="priority" x="1000.00" y="0.00" incLanes="1_0 1_1 1_2" intLanes=":2_0_0 :2_0_1 :2_0_2" shape="1000.00,0.00 1000.00,-11.25 1000.00,0.00">
        <request index="0" response="000" foes="000" cont="0"/>
        <request index="1" response="000" foes="000" cont="0"/>
        <request index="2" response="000" foes="000" cont="0"/>
    </junction>
    <junction id="3" type="priority" x="1200.00" y="0.00" incLanes="2_0 2_1 2_2" intLanes=":3_0_0 :3_0_1 :3_0_2" shape="1200.00,0.00 1200.00,-11.25 1200.00,0.00">
        <request index="0" response="000" foes="000" cont="0"/>
        <request index="1" response="000" foes="000" cont="0"/>
        <request index="2" response="000" foes="000" cont="0"/>
    </junction>
    <junction id="4" type="priority" x="1400.00" y="0.00" incLanes="3_0 3_1 3_2" intLanes=":4_0_0 :4_0_1 :4_0_2" shape="1400.00,0.00 1400.00,-11.25 1400.00,0.00">
        <request index="0" response="000" foes="000" cont="0"/>
        <request index="1" response="000" foes="000" cont="0"/>
        <request index="2" response="000" foes="000" cont="0"/>
    </junction>
    <junction id="5" type="priority" x="1600.00" y="0.00" incLanes="4_0 4_1 4_2" intLanes=":5_0_0 :5_0_1 :5_0_2" shape="1600.00,0.00 1600.00,-11.25 1600.00,0.00">
        <request index="0" response="000" foes="000" cont="0"/>
        <request index="1" response="000" foes="000" cont="0"/>
        <request index="2" response="000" foes="000" cont="0"/>
    </junction>
    <junction id="6" type="priority" x="1800.00" y="0.00" incLanes="5_0 5_1 5_2" intLanes=":6_0_0 :6_0_1 :6_0_2" shape="1800.00,0.00 1800.00,-11.25 1800.00,0.00">
        <request index="0" response="000" foes="000" cont="0"/>
        <request index="1" response="000" foes="000" cont="0"/>
        <request index="2" response="000" foes="000" cont="0"/>
    </junction>
    <junction id="7" type="priority" x="2000.00" y="0.00" incLanes="6_0 6_1 6_2" intLanes=":7_0_0 :7_0_1 :7_0_2" shape="2000.00,0.00 2000.00,-11.25 2000.00,0.00">
        <request index="0" response="000" foes="000" cont="0"/>
        <request index="1" response="000" foes="000" cont="0"/>
        <request index="2" response="000" foes="000" cont="0"/>
    </junction>
    <junction id="8" type="priority" x="2200.00" y="0.00" incLanes="7_0 7_1 7_2" intLanes=":8_0_0 :8_0_1 :8_0_2" shape="2200.00,0.00 2200.00,-11.25 2200.00,0.00">
        <request index="0" response="000" foes="000" cont="0"/>
        <request index="1" response="000" foes="000" cont="0"/>
        <request index="2" response="000" foes="000" cont="0"/>
    </junction>
    <junction id="9" type="priority" x="2400.00" y="0.00" incLanes="8_0 8_1 8_2" intLanes=":9_0_0 :9_0_1 :9_0_2" shape="2400.00,0.00 2400.00,-11.25 2400.00,0.00">
        <request index="0" response="000" foes="000" cont="0"/>
        <request index="1" response="000" foes="000" cont="0"/>
        <request index="2" response="000" foes="000" cont="0"/>
    </junction>

    <connection from="1" to="2" fromLane="0" toLane="0" via=":2_0_0" dir="s" state="M"/>
    <connection from="1" to="2" fromLane="1" toLane="1" via=":2_0_1" dir="s" state="M"/>
    <connection from="1" to="2" fromLane="2" toLane="2" via=":2_0_2" dir="s" state="M"/>
    <connection from="10" to="11" fromLane="0" toLane="0" via=":11_0_0" dir="s" state="M"/>
    <connection from="10" to="11" fromLane="1" toLane="1" via=":11_0_1" dir="s" state="M"/>
    <connection from="10" to="11" fromLane="2" toLane="2" via=":11_0_2" dir="s" state="M"/>
    <connection from="11" to="12" fromLane="0" toLane="0" via=":12_0_0" dir="s" state="m"/>
    <connection from="11" to="12" fromLane="1" toLane="0" keepClear="0" via=":12_0_1" dir="s" state="M"/>
    <connection from="11" to="12" fromLane="1" toLane="1" via=":12_0_2" dir="s" state="m"/>
    <connection from="11" to="12" fromLane="2" toLane="1" keepClear="0" via=":12_0_3" dir="s" state="M"/>
    <connection from="12" to="13" fromLane="0" toLane="0" via=":13_0_0" dir="s" state="M"/>
    <connection from="12" to="13" fromLane="0" toLane="1" via=":13_0_1" dir="s" state="m"/>
    <connection from="12" to="13" fromLane="1" toLane="1" via=":13_0_2" dir="s" state="M"/>
    <connection from="12" to="13" fromLane="1" toLane="2" via=":13_0_3" dir="s" state="M"/>
    <connection from="2" to="3" fromLane="0" toLane="0" via=":3_0_0" dir="s" state="M"/>
    <connection from="2" to="3" fromLane="1" toLane="1" via=":3_0_1" dir="s" state="M"/>
    <connection from="2" to="3" fromLane="2" toLane="2" via=":3_0_2" dir="s" state="M"/>
    <connection from="3" to="4" fromLane="0" toLane="0" via=":4_0_0" dir="s" state="M"/>
    <connection from="3" to="4" fromLane="1" toLane="1" via=":4_0_1" dir="s" state="M"/>
    <connection from="3" to="4" fromLane="2" toLane="2" via=":4_0_2" dir="s" state="M"/>
    <connection from="4" to="5" fromLane="0" toLane="0" via=":5_0_0" dir="s" state="M"/>
    <connection from="4" to="5" fromLane="1" toLane="1" via=":5_0_1" dir="s" state="M"/>
    <connection from="4" to="5" fromLane="2" toLane="2" via=":5_0_2" dir="s" state="M"/>
    <connection from="5" to="6" fromLane="0" toLane="0" via=":6_0_0" dir="s" state="M"/>
    <connection from="5" to="6" fromLane="1" toLane="1" via=":6_0_1" dir="s" state="M"/>
    <connection from="5" to="6" fromLane="2" toLane="2" via=":6_0_2" dir="s" state="M"/>
    <connection from="6" to="7" fromLane="0" toLane="0" via=":7_0_0" dir="s" state="M"/>
    <connection from="6" to="7" fromLane="1" toLane="1" via=":7_0_1" dir="s" state="M"/>
    <connection from="6" to="7" fromLane="2" toLane="2" via=":7_0_2" dir="s" state="M"/>
    <connection from="7" to="8" fromLane="0" toLane="0" via=":8_0_0" dir="s" state="M"/>
    <connection from="7" to="8" fromLane="1" toLane="1" via=":8_0_1" dir="s" state="M"/>
    <connection from="7" to="8" fromLane="2" toLane="2" via=":8_0_2" dir="s" state="M"/>
    <connection from="8" to="9" fromLane="0" toLane="0" via=":9_0_0" dir="s" state="M"/>
    <connection from="8" to="9" fromLane="1" toLane="1" via=":9_0_1" dir="s" state="M"/>
    <connection from="8" to="9" fromLane="2" toLane="2" via=":9_0_2" dir="s" state="M"/>
    <connection from="9" to="10" fromLane="0" toLane="0" via=":10_0_0" dir="s" state="M"/>
    <connection from="9" to="10" fromLane="1" toLane="1" via=":10_0_1" dir="s" state="M"/>
    <connection from="9" to="10" fromLane="2" toLane="2" via=":10_0_2" dir="s" state="M"/>

    <connection from=":10_0" to="10" fromLane="0" toLane="0" dir="s" state="M"/>
    <connection from=":10_0" to="10" fromLane="1" toLane="1" dir="s" state="M"/>
    <connection from=":10_0" to="10" fromLane="2" toLane="2" dir="s" state="M"/>
    <connection from=":11_0" to="11" fromLane="0" toLane="0" dir="s" state="M"/>
    <connection from=":11_0" to="11" fromLane="1" toLane="1" dir="s" state="M"/>
    <connection from=":11_0" to="11" fromLane="2" toLane="2" dir="s" state="M"/>
    <connection from=":12_0" to="12" fromLane="0" toLane="0" dir="s" state="M"/>
    <connection from=":12_0" to="12" fromLane="1" toLane="0" dir="s" state="M"/>
    <connection from=":12_0" to="12" fromLane="2" toLane="1" dir="s" state="M"/>
    <connection from=":12_0" to="12" fromLane="3" toLane="1" dir="s" state="M"/>
    <connection from=":13_0" to="13" fromLane="0" toLane="0" dir="s" state="M"/>
    <connection from=":13_0" to="13" fromLane="1" toLane="1" dir="s" state="M"/>
    <connection from=":13_0" to="13" fromLane="2" toLane="1" dir="s" state="M"/>
    <connection from=":13_0" to="13" fromLane="3" toLane="2" dir="s" state="M"/>
    <connection from=":2_0" to="2" fromLane="0" toLane="0" dir="s" state="M"/>
    <connection from=":2_0" to="2" fromLane="1" toLane="1" dir="s" state="M"/>
    <connection from=":2_0" to="2" fromLane="2" toLane="2" dir="s" state="M"/>
    <connection from=":3_0" to="3" fromLane="0" toLane="0" dir="s" state="M"/>
    <connection from=":3_0" to="3" fromLane="1" toLane="1" dir="s" state="M"/>
    <connection from=":3_0" to="3" fromLane="2" toLane="2" dir="s" state="M"/>
    <connection from=":4_0" to="4" fromLane="0" toLane="0" dir="s" state="M"/>
    <connection from=":4_0" to="4" fromLane="1" toLane="1" dir="s" state="M"/>
    <connection from=":4_0" to="4" fromLane="2" toLane="2" dir="s" state="M"/>
    <connection from=":5_0" to="5" fromLane="0" toLane="0" dir="s" state="M"/>
    <connection from=":5_0" to="5" fromLane="1" toLane="1" dir="s" state="M"/>
    <connection from=":5_0" to="5" fromLane="2" toLane="2" dir="s" state="M"/>
    <connection from=":6_0" to="6" fromLane="0" toLane="0" dir="s" state="M"/>
    <connection from=":6_0" to="6" fromLane="1" toLane="1" dir="s" state="M"/>
    <connection from=":6_0" to="6" fromLane="2" toLane="2" dir="s" state="M"/>
    <connection from=":7_0" to="7" fromLane="0" toLane="0" dir="s" state="M"/>
    <connection from=":7_0" to="7" fromLane="1" toLane="1" dir="s" state="M"/>
    <connection from=":7_0" to="7" fromLane="2" toLane="2" dir="s" state="M"/>
    <connection from=":8_0" to="8" fromLane="0" toLane="0" dir="s" state="M"/>
    <connection from=":8_0" to="8" fromLane="1" toLane="1" dir="s" state="M"/>
    <connection from=":8_0" to="8" fromLane="2" toLane="2" dir="s" state="M"/>
    <connection from=":9_0" to="9" fromLane="0" toLane="0" dir="s" state="M"/>
    <connection from=":9_0" to="9" fromLane="1" toLane="1" dir="s" state="M"/>
    <connection from=":9_0" to="9" fromLane="2" toLane="2" dir="s" state="M"/>

</net>
