<?xml version="1.0" encoding="UTF-8"?>
<routes>
    <route id="freeway" edges="1 2 3 4 5 6 7 8 9 10 11 12 13"/>

    <flow id="hv_flow" 
          type="hv" 
          color="yellow"
          route="freeway" 
          begin="0" 
          end="1800" 
          number="1000"  
          departLane="best" 
          departSpeed="max"/>

    <flow id="cav_flow" 
          type="cav"
          color="green" 
          route="freeway" 
          begin="0" 
          end="1800" 
          number="500"
          departLane="best" 
          departSpeed="max"/>

</routes>