<?xml version="1.0" ?>

<additional xmlns:xsi="http://www.w3.org/2001/XMLSchema-instance" xsi:noNamespaceSchemaLocation="http://sumo.dlr.de/xsd/additional_file.xsd">

	<vTypeDistribution id="cav">

		<vType id="cav0" tau="0.600" tauCACCToACC="1.549" length="5" width="1.800" accel="1.003" decel="2.862" emergencyDecel="9" vClass="custom2" carFollowModel="CACC" laneChangeModel="LC2013" lcAssertive="0.830" actionStepLength="0.100"/>

		<vType id="cav1" tau="0.600" tauCACCToACC="1.613" length="5" width="1.800" accel="1.175" decel="2.535" emergencyDecel="9" vClass="custom2" carFollowModel="CACC" laneChangeModel="LC2013" lcAssertive="0.880" actionStepLength="0.100"/>

		<vType id="cav2" tau="0.600" tauCACCToACC="1.794" length="5" width="1.800" accel="1.868" decel="2.343" emergencyDecel="9" vClass="custom2" carFollowModel="CACC" laneChangeModel="LC2013" lcAssertive="0.831" actionStepLength="0.100"/>

		<vType id="cav3" tau="0.600" tauCACCToACC="1.310" length="5" width="1.800" accel="1.866" decel="2.718" emergencyDecel="9" vClass="custom2" carFollowModel="CACC" laneChangeModel="LC2013" lcAssertive="0.863" actionStepLength="0.100"/>

		<vType id="cav4" tau="0.600" tauCACCToACC="1.314" length="5" width="1.800" accel="1.810" decel="2.568" emergencyDecel="9" vClass="custom2" carFollowModel="CACC" laneChangeModel="LC2013" lcAssertive="0.869" actionStepLength="0.100"/>

		<vType id="cav5" tau="0.600" tauCACCToACC="1.588" length="5" width="1.800" accel="0.965" decel="3.143" emergencyDecel="9" vClass="custom2" carFollowModel="CACC" laneChangeModel="LC2013" lcAssertive="0.878" actionStepLength="0.100"/>

		<vType id="cav6" tau="0.600" tauCACCToACC="1.456" length="5" width="1.800" accel="1.501" decel="2.042" emergencyDecel="9" vClass="custom2" carFollowModel="CACC" laneChangeModel="LC2013" lcAssertive="0.854" actionStepLength="0.100"/>

		<vType id="cav7" tau="0.600" tauCACCToACC="1.696" length="5" width="1.800" accel="1.149" decel="3.523" emergencyDecel="9" vClass="custom2" carFollowModel="CACC" laneChangeModel="LC2013" lcAssertive="0.848" actionStepLength="0.100"/>

		<vType id="cav8" tau="0.600" tauCACCToACC="1.467" length="5" width="1.800" accel="1.750" decel="2.255" emergencyDecel="9" vClass="custom2" carFollowModel="CACC" laneChangeModel="LC2013" lcAssertive="0.846" actionStepLength="0.100"/>

		<vType id="cav9" tau="0.600" tauCACCToACC="1.332" length="5" width="1.800" accel="0.825" decel="2.406" emergencyDecel="9" vClass="custom2" carFollowModel="CACC" laneChangeModel="LC2013" lcAssertive="0.810" actionStepLength="0.100"/>

		<vType id="cav10" tau="0.600" tauCACCToACC="1.228" length="5" width="1.800" accel="0.935" decel="2.782" emergencyDecel="9" vClass="custom2" carFollowModel="CACC" laneChangeModel="LC2013" lcAssertive="0.863" actionStepLength="0.100"/>

		<vType id="cav11" tau="0.600" tauCACCToACC="1.257" length="5" width="1.800" accel="1.254" decel="2.747" emergencyDecel="9" vClass="custom2" carFollowModel="CACC" laneChangeModel="LC2013" lcAssertive="0.867" actionStepLength="0.100"/>

		<vType id="cav12" tau="0.600" tauCACCToACC="1.307" length="5" width="1.800" accel="1.314" decel="2.296" emergencyDecel="9" vClass="custom2" carFollowModel="CACC" laneChangeModel="LC2013" lcAssertive="0.852" actionStepLength="0.100"/>

		<vType id="cav13" tau="0.600" tauCACCToACC="1.644" length="5" width="1.800" accel="1.469" decel="2.820" emergencyDecel="9" vClass="custom2" carFollowModel="CACC" laneChangeModel="LC2013" lcAssertive="0.813" actionStepLength="0.100"/>

		<vType id="cav14" tau="0.600" tauCACCToACC="1.473" length="5" width="1.800" accel="1.840" decel="2.158" emergencyDecel="9" vClass="custom2" carFollowModel="CACC" laneChangeModel="LC2013" lcAssertive="0.856" actionStepLength="0.100"/>

		<vType id="cav15" tau="0.600" tauCACCToACC="1.135" length="5" width="1.800" accel="1.533" decel="2.115" emergencyDecel="9" vClass="custom2" carFollowModel="CACC" laneChangeModel="LC2013" lcAssertive="0.860" actionStepLength="0.100"/>

		<vType id="cav16" tau="0.600" tauCACCToACC="1.397" length="5" width="1.800" accel="1.926" decel="2.667" emergencyDecel="9" vClass="custom2" carFollowModel="CACC" laneChangeModel="LC2013" lcAssertive="0.862" actionStepLength="0.100"/>

		<vType id="cav17" tau="0.600" tauCACCToACC="1.142" length="5" width="1.800" accel="0.758" decel="3.421" emergencyDecel="9" vClass="custom2" carFollowModel="CACC" laneChangeModel="LC2013" lcAssertive="0.825" actionStepLength="0.100"/>

		<vType id="cav18" tau="0.600" tauCACCToACC="1.229" length="5" width="1.800" accel="1.234" decel="3.776" emergencyDecel="9" vClass="custom2" carFollowModel="CACC" laneChangeModel="LC2013" lcAssertive="0.820" actionStepLength="0.100"/>

		<vType id="cav19" tau="0.600" tauCACCToACC="1.302" length="5" width="1.800" accel="1.969" decel="3.313" emergencyDecel="9" vClass="custom2" carFollowModel="CACC" laneChangeModel="LC2013" lcAssertive="0.846" actionStepLength="0.100"/>

		<vType id="cav20" tau="0.600" tauCACCToACC="1.464" length="5" width="1.800" accel="1.819" decel="3.923" emergencyDecel="9" vClass="custom2" carFollowModel="CACC" laneChangeModel="LC2013" lcAssertive="0.847" actionStepLength="0.100"/>

		<vType id="cav21" tau="0.600" tauCACCToACC="1.805" length="5" width="1.800" accel="0.808" decel="3.866" emergencyDecel="9" vClass="custom2" carFollowModel="CACC" laneChangeModel="LC2013" lcAssertive="0.840" actionStepLength="0.100"/>

		<vType id="cav22" tau="0.600" tauCACCToACC="1.415" length="5" width="1.800" accel="1.402" decel="3.656" emergencyDecel="9" vClass="custom2" carFollowModel="CACC" laneChangeModel="LC2013" lcAssertive="0.807" actionStepLength="0.100"/>

		<vType id="cav23" tau="0.600" tauCACCToACC="1.722" length="5" width="1.800" accel="1.904" decel="3.571" emergencyDecel="9" vClass="custom2" carFollowModel="CACC" laneChangeModel="LC2013" lcAssertive="0.857" actionStepLength="0.100"/>

		<vType id="cav24" tau="0.600" tauCACCToACC="1.407" length="5" width="1.800" accel="1.735" decel="2.750" emergencyDecel="9" vClass="custom2" carFollowModel="CACC" laneChangeModel="LC2013" lcAssertive="0.858" actionStepLength="0.100"/>

		<vType id="cav25" tau="0.600" tauCACCToACC="1.608" length="5" width="1.800" accel="0.947" decel="2.762" emergencyDecel="9" vClass="custom2" carFollowModel="CACC" laneChangeModel="LC2013" lcAssertive="0.828" actionStepLength="0.100"/>

		<vType id="cav26" tau="0.600" tauCACCToACC="1.859" length="5" width="1.800" accel="1.214" decel="3.496" emergencyDecel="9" vClass="custom2" carFollowModel="CACC" laneChangeModel="LC2013" lcAssertive="0.847" actionStepLength="0.100"/>

		<vType id="cav27" tau="0.600" tauCACCToACC="1.407" length="5" width="1.800" accel="1.843" decel="3.382" emergencyDecel="9" vClass="custom2" carFollowModel="CACC" laneChangeModel="LC2013" lcAssertive="0.833" actionStepLength="0.100"/>

		<vType id="cav28" tau="0.600" tauCACCToACC="1.421" length="5" width="1.800" accel="1.487" decel="3.032" emergencyDecel="9" vClass="custom2" carFollowModel="CACC" laneChangeModel="LC2013" lcAssertive="0.842" actionStepLength="0.100"/>

		<vType id="cav29" tau="0.600" tauCACCToACC="1.847" length="5" width="1.800" accel="1.441" decel="3.953" emergencyDecel="9" vClass="custom2" carFollowModel="CACC" laneChangeModel="LC2013" lcAssertive="0.856" actionStepLength="0.100"/>

		<vType id="cav30" tau="0.600" tauCACCToACC="1.297" length="5" width="1.800" accel="0.924" decel="3.080" emergencyDecel="9" vClass="custom2" carFollowModel="CACC" laneChangeModel="LC2013" lcAssertive="0.820" actionStepLength="0.100"/>

		<vType id="cav31" tau="0.600" tauCACCToACC="1.576" length="5" width="1.800" accel="1.153" decel="2.818" emergencyDecel="9" vClass="custom2" carFollowModel="CACC" laneChangeModel="LC2013" lcAssertive="0.821" actionStepLength="0.100"/>

		<vType id="cav32" tau="0.600" tauCACCToACC="1.595" length="5" width="1.800" accel="0.950" decel="3.199" emergencyDecel="9" vClass="custom2" carFollowModel="CACC" laneChangeModel="LC2013" lcAssertive="0.838" actionStepLength="0.100"/>

		<vType id="cav33" tau="0.600" tauCACCToACC="1.477" length="5" width="1.800" accel="1.303" decel="2.936" emergencyDecel="9" vClass="custom2" carFollowModel="CACC" laneChangeModel="LC2013" lcAssertive="0.854" actionStepLength="0.100"/>

		<vType id="cav34" tau="0.600" tauCACCToACC="1.417" length="5" width="1.800" accel="0.765" decel="3.722" emergencyDecel="9" vClass="custom2" carFollowModel="CACC" laneChangeModel="LC2013" lcAssertive="0.841" actionStepLength="0.100"/>

		<vType id="cav35" tau="0.600" tauCACCToACC="1.735" length="5" width="1.800" accel="1.640" decel="3.480" emergencyDecel="9" vClass="custom2" carFollowModel="CACC" laneChangeModel="LC2013" lcAssertive="0.830" actionStepLength="0.100"/>

		<vType id="cav36" tau="0.600" tauCACCToACC="1.761" length="5" width="1.800" accel="1.899" decel="3.877" emergencyDecel="9" vClass="custom2" carFollowModel="CACC" laneChangeModel="LC2013" lcAssertive="0.880" actionStepLength="0.100"/>

		<vType id="cav37" tau="0.600" tauCACCToACC="1.649" length="5" width="1.800" accel="1.305" decel="3.016" emergencyDecel="9" vClass="custom2" carFollowModel="CACC" laneChangeModel="LC2013" lcAssertive="0.877" actionStepLength="0.100"/>

		<vType id="cav38" tau="0.600" tauCACCToACC="1.626" length="5" width="1.800" accel="1.627" decel="2.589" emergencyDecel="9" vClass="custom2" carFollowModel="CACC" laneChangeModel="LC2013" lcAssertive="0.867" actionStepLength="0.100"/>

		<vType id="cav39" tau="0.600" tauCACCToACC="1.469" length="5" width="1.800" accel="1.286" decel="3.736" emergencyDecel="9" vClass="custom2" carFollowModel="CACC" laneChangeModel="LC2013" lcAssertive="0.801" actionStepLength="0.100"/>

		<vType id="cav40" tau="0.600" tauCACCToACC="1.595" length="5" width="1.800" accel="1.419" decel="3.923" emergencyDecel="9" vClass="custom2" carFollowModel="CACC" laneChangeModel="LC2013" lcAssertive="0.848" actionStepLength="0.100"/>

		<vType id="cav41" tau="0.600" tauCACCToACC="1.321" length="5" width="1.800" accel="1.974" decel="3.266" emergencyDecel="9" vClass="custom2" carFollowModel="CACC" laneChangeModel="LC2013" lcAssertive="0.852" actionStepLength="0.100"/>

		<vType id="cav42" tau="0.600" tauCACCToACC="1.626" length="5" width="1.800" accel="1.977" decel="2.515" emergencyDecel="9" vClass="custom2" carFollowModel="CACC" laneChangeModel="LC2013" lcAssertive="0.838" actionStepLength="0.100"/>

		<vType id="cav43" tau="0.600" tauCACCToACC="1.552" length="5" width="1.800" accel="0.811" decel="2.902" emergencyDecel="9" vClass="custom2" carFollowModel="CACC" laneChangeModel="LC2013" lcAssertive="0.884" actionStepLength="0.100"/>

		<vType id="cav44" tau="0.600" tauCACCToACC="1.417" length="5" width="1.800" accel="0.821" decel="3.081" emergencyDecel="9" vClass="custom2" carFollowModel="CACC" laneChangeModel="LC2013" lcAssertive="0.858" actionStepLength="0.100"/>

		<vType id="cav45" tau="0.600" tauCACCToACC="1.748" length="5" width="1.800" accel="1.406" decel="3.922" emergencyDecel="9" vClass="custom2" carFollowModel="CACC" laneChangeModel="LC2013" lcAssertive="0.811" actionStepLength="0.100"/>

		<vType id="cav46" tau="0.600" tauCACCToACC="1.531" length="5" width="1.800" accel="1.570" decel="2.297" emergencyDecel="9" vClass="custom2" carFollowModel="CACC" laneChangeModel="LC2013" lcAssertive="0.861" actionStepLength="0.100"/>

		<vType id="cav47" tau="0.600" tauCACCToACC="1.373" length="5" width="1.800" accel="1.826" decel="3.227" emergencyDecel="9" vClass="custom2" carFollowModel="CACC" laneChangeModel="LC2013" lcAssertive="0.819" actionStepLength="0.100"/>

		<vType id="cav48" tau="0.600" tauCACCToACC="1.628" length="5" width="1.800" accel="1.218" decel="2.172" emergencyDecel="9" vClass="custom2" carFollowModel="CACC" laneChangeModel="LC2013" lcAssertive="0.870" actionStepLength="0.100"/>

		<vType id="cav49" tau="0.600" tauCACCToACC="1.417" length="5" width="1.800" accel="1.488" decel="2.593" emergencyDecel="9" vClass="custom2" carFollowModel="CACC" laneChangeModel="LC2013" lcAssertive="0.877" actionStepLength="0.100"/>

		<vType id="cav50" tau="0.600" tauCACCToACC="1.581" length="5" width="1.800" accel="1.355" decel="3.872" emergencyDecel="9" vClass="custom2" carFollowModel="CACC" laneChangeModel="LC2013" lcAssertive="0.858" actionStepLength="0.100"/>

		<vType id="cav51" tau="0.600" tauCACCToACC="1.497" length="5" width="1.800" accel="1.109" decel="2.047" emergencyDecel="9" vClass="custom2" carFollowModel="CACC" laneChangeModel="LC2013" lcAssertive="0.874" actionStepLength="0.100"/>

		<vType id="cav52" tau="0.600" tauCACCToACC="1.477" length="5" width="1.800" accel="1.161" decel="3.125" emergencyDecel="9" vClass="custom2" carFollowModel="CACC" laneChangeModel="LC2013" lcAssertive="0.833" actionStepLength="0.100"/>

		<vType id="cav53" tau="0.600" tauCACCToACC="1.735" length="5" width="1.800" accel="1.148" decel="3.246" emergencyDecel="9" vClass="custom2" carFollowModel="CACC" laneChangeModel="LC2013" lcAssertive="0.824" actionStepLength="0.100"/>

		<vType id="cav54" tau="0.600" tauCACCToACC="1.520" length="5" width="1.800" accel="1.425" decel="3.757" emergencyDecel="9" vClass="custom2" carFollowModel="CACC" laneChangeModel="LC2013" lcAssertive="0.803" actionStepLength="0.100"/>

		<vType id="cav55" tau="0.600" tauCACCToACC="1.529" length="5" width="1.800" accel="1.574" decel="2.469" emergencyDecel="9" vClass="custom2" carFollowModel="CACC" laneChangeModel="LC2013" lcAssertive="0.850" actionStepLength="0.100"/>

		<vType id="cav56" tau="0.600" tauCACCToACC="1.520" length="5" width="1.800" accel="1.695" decel="2.887" emergencyDecel="9" vClass="custom2" carFollowModel="CACC" laneChangeModel="LC2013" lcAssertive="0.815" actionStepLength="0.100"/>

		<vType id="cav57" tau="0.600" tauCACCToACC="1.532" length="5" width="1.800" accel="1.582" decel="3.647" emergencyDecel="9" vClass="custom2" carFollowModel="CACC" laneChangeModel="LC2013" lcAssertive="0.856" actionStepLength="0.100"/>

		<vType id="cav58" tau="0.600" tauCACCToACC="1.160" length="5" width="1.800" accel="1.199" decel="3.748" emergencyDecel="9" vClass="custom2" carFollowModel="CACC" laneChangeModel="LC2013" lcAssertive="0.812" actionStepLength="0.100"/>

		<vType id="cav59" tau="0.600" tauCACCToACC="1.730" length="5" width="1.800" accel="0.933" decel="3.545" emergencyDecel="9" vClass="custom2" carFollowModel="CACC" laneChangeModel="LC2013" lcAssertive="0.883" actionStepLength="0.100"/>

		<vType id="cav60" tau="0.600" tauCACCToACC="1.273" length="5" width="1.800" accel="0.933" decel="2.358" emergencyDecel="9" vClass="custom2" carFollowModel="CACC" laneChangeModel="LC2013" lcAssertive="0.858" actionStepLength="0.100"/>

		<vType id="cav61" tau="0.600" tauCACCToACC="1.332" length="5" width="1.800" accel="1.462" decel="3.290" emergencyDecel="9" vClass="custom2" carFollowModel="CACC" laneChangeModel="LC2013" lcAssertive="0.832" actionStepLength="0.100"/>

		<vType id="cav62" tau="0.600" tauCACCToACC="1.750" length="5" width="1.800" accel="1.441" decel="3.284" emergencyDecel="9" vClass="custom2" carFollowModel="CACC" laneChangeModel="LC2013" lcAssertive="0.862" actionStepLength="0.100"/>

		<vType id="cav63" tau="0.600" tauCACCToACC="1.719" length="5" width="1.800" accel="1.863" decel="2.759" emergencyDecel="9" vClass="custom2" carFollowModel="CACC" laneChangeModel="LC2013" lcAssertive="0.859" actionStepLength="0.100"/>

		<vType id="cav64" tau="0.600" tauCACCToACC="1.222" length="5" width="1.800" accel="0.859" decel="3.612" emergencyDecel="9" vClass="custom2" carFollowModel="CACC" laneChangeModel="LC2013" lcAssertive="0.865" actionStepLength="0.100"/>

		<vType id="cav65" tau="0.600" tauCACCToACC="1.715" length="5" width="1.800" accel="1.187" decel="2.763" emergencyDecel="9" vClass="custom2" carFollowModel="CACC" laneChangeModel="LC2013" lcAssertive="0.864" actionStepLength="0.100"/>

		<vType id="cav66" tau="0.600" tauCACCToACC="1.325" length="5" width="1.800" accel="0.990" decel="2.426" emergencyDecel="9" vClass="custom2" carFollowModel="CACC" laneChangeModel="LC2013" lcAssertive="0.837" actionStepLength="0.100"/>

		<vType id="cav67" tau="0.600" tauCACCToACC="1.271" length="5" width="1.800" accel="1.992" decel="2.838" emergencyDecel="9" vClass="custom2" carFollowModel="CACC" laneChangeModel="LC2013" lcAssertive="0.849" actionStepLength="0.100"/>

		<vType id="cav68" tau="0.600" tauCACCToACC="1.420" length="5" width="1.800" accel="1.097" decel="2.394" emergencyDecel="9" vClass="custom2" carFollowModel="CACC" laneChangeModel="LC2013" lcAssertive="0.872" actionStepLength="0.100"/>

		<vType id="cav69" tau="0.600" tauCACCToACC="1.656" length="5" width="1.800" accel="1.670" decel="3.650" emergencyDecel="9" vClass="custom2" carFollowModel="CACC" laneChangeModel="LC2013" lcAssertive="0.821" actionStepLength="0.100"/>

		<vType id="cav70" tau="0.600" tauCACCToACC="1.372" length="5" width="1.800" accel="0.799" decel="2.482" emergencyDecel="9" vClass="custom2" carFollowModel="CACC" laneChangeModel="LC2013" lcAssertive="0.856" actionStepLength="0.100"/>

		<vType id="cav71" tau="0.600" tauCACCToACC="1.367" length="5" width="1.800" accel="1.568" decel="2.940" emergencyDecel="9" vClass="custom2" carFollowModel="CACC" laneChangeModel="LC2013" lcAssertive="0.863" actionStepLength="0.100"/>

		<vType id="cav72" tau="0.600" tauCACCToACC="1.133" length="5" width="1.800" accel="1.596" decel="3.201" emergencyDecel="9" vClass="custom2" carFollowModel="CACC" laneChangeModel="LC2013" lcAssertive="0.897" actionStepLength="0.100"/>

		<vType id="cav73" tau="0.600" tauCACCToACC="1.724" length="5" width="1.800" accel="1.983" decel="2.892" emergencyDecel="9" vClass="custom2" carFollowModel="CACC" laneChangeModel="LC2013" lcAssertive="0.840" actionStepLength="0.100"/>

		<vType id="cav74" tau="0.600" tauCACCToACC="1.468" length="5" width="1.800" accel="1.125" decel="2.746" emergencyDecel="9" vClass="custom2" carFollowModel="CACC" laneChangeModel="LC2013" lcAssertive="0.874" actionStepLength="0.100"/>

		<vType id="cav75" tau="0.600" tauCACCToACC="1.568" length="5" width="1.800" accel="1.167" decel="2.250" emergencyDecel="9" vClass="custom2" carFollowModel="CACC" laneChangeModel="LC2013" lcAssertive="0.855" actionStepLength="0.100"/>

		<vType id="cav76" tau="0.600" tauCACCToACC="1.534" length="5" width="1.800" accel="1.847" decel="2.043" emergencyDecel="9" vClass="custom2" carFollowModel="CACC" laneChangeModel="LC2013" lcAssertive="0.863" actionStepLength="0.100"/>

		<vType id="cav77" tau="0.600" tauCACCToACC="1.783" length="5" width="1.800" accel="1.751" decel="2.513" emergencyDecel="9" vClass="custom2" carFollowModel="CACC" laneChangeModel="LC2013" lcAssertive="0.860" actionStepLength="0.100"/>

		<vType id="cav78" tau="0.600" tauCACCToACC="1.793" length="5" width="1.800" accel="1.302" decel="3.236" emergencyDecel="9" vClass="custom2" carFollowModel="CACC" laneChangeModel="LC2013" lcAssertive="0.861" actionStepLength="0.100"/>

		<vType id="cav79" tau="0.600" tauCACCToACC="1.458" length="5" width="1.800" accel="1.910" decel="3.540" emergencyDecel="9" vClass="custom2" carFollowModel="CACC" laneChangeModel="LC2013" lcAssertive="0.847" actionStepLength="0.100"/>

		<vType id="cav80" tau="0.600" tauCACCToACC="1.599" length="5" width="1.800" accel="1.332" decel="3.596" emergencyDecel="9" vClass="custom2" carFollowModel="CACC" laneChangeModel="LC2013" lcAssertive="0.856" actionStepLength="0.100"/>

		<vType id="cav81" tau="0.600" tauCACCToACC="1.410" length="5" width="1.800" accel="0.926" decel="2.376" emergencyDecel="9" vClass="custom2" carFollowModel="CACC" laneChangeModel="LC2013" lcAssertive="0.832" actionStepLength="0.100"/>

		<vType id="cav82" tau="0.600" tauCACCToACC="1.640" length="5" width="1.800" accel="1.805" decel="3.617" emergencyDecel="9" vClass="custom2" carFollowModel="CACC" laneChangeModel="LC2013" lcAssertive="0.820" actionStepLength="0.100"/>

		<vType id="cav83" tau="0.600" tauCACCToACC="1.741" length="5" width="1.800" accel="1.820" decel="2.741" emergencyDecel="9" vClass="custom2" carFollowModel="CACC" laneChangeModel="LC2013" lcAssertive="0.842" actionStepLength="0.100"/>

		<vType id="cav84" tau="0.600" tauCACCToACC="1.267" length="5" width="1.800" accel="1.824" decel="3.925" emergencyDecel="9" vClass="custom2" carFollowModel="CACC" laneChangeModel="LC2013" lcAssertive="0.886" actionStepLength="0.100"/>

		<vType id="cav85" tau="0.600" tauCACCToACC="1.269" length="5" width="1.800" accel="1.803" decel="3.257" emergencyDecel="9" vClass="custom2" carFollowModel="CACC" laneChangeModel="LC2013" lcAssertive="0.823" actionStepLength="0.100"/>

		<vType id="cav86" tau="0.600" tauCACCToACC="1.407" length="5" width="1.800" accel="0.907" decel="3.023" emergencyDecel="9" vClass="custom2" carFollowModel="CACC" laneChangeModel="LC2013" lcAssertive="0.859" actionStepLength="0.100"/>

		<vType id="cav87" tau="0.600" tauCACCToACC="1.747" length="5" width="1.800" accel="0.916" decel="2.060" emergencyDecel="9" vClass="custom2" carFollowModel="CACC" laneChangeModel="LC2013" lcAssertive="0.850" actionStepLength="0.100"/>

		<vType id="cav88" tau="0.600" tauCACCToACC="1.346" length="5" width="1.800" accel="1.282" decel="2.067" emergencyDecel="9" vClass="custom2" carFollowModel="CACC" laneChangeModel="LC2013" lcAssertive="0.837" actionStepLength="0.100"/>

		<vType id="cav89" tau="0.600" tauCACCToACC="1.362" length="5" width="1.800" accel="1.927" decel="2.315" emergencyDecel="9" vClass="custom2" carFollowModel="CACC" laneChangeModel="LC2013" lcAssertive="0.831" actionStepLength="0.100"/>

		<vType id="cav90" tau="0.600" tauCACCToACC="1.408" length="5" width="1.800" accel="1.934" decel="2.628" emergencyDecel="9" vClass="custom2" carFollowModel="CACC" laneChangeModel="LC2013" lcAssertive="0.836" actionStepLength="0.100"/>

		<vType id="cav91" tau="0.600" tauCACCToACC="1.799" length="5" width="1.800" accel="0.956" decel="3.526" emergencyDecel="9" vClass="custom2" carFollowModel="CACC" laneChangeModel="LC2013" lcAssertive="0.845" actionStepLength="0.100"/>

		<vType id="cav92" tau="0.600" tauCACCToACC="1.627" length="5" width="1.800" accel="1.319" decel="3.397" emergencyDecel="9" vClass="custom2" carFollowModel="CACC" laneChangeModel="LC2013" lcAssertive="0.847" actionStepLength="0.100"/>

		<vType id="cav93" tau="0.600" tauCACCToACC="1.655" length="5" width="1.800" accel="1.584" decel="3.997" emergencyDecel="9" vClass="custom2" carFollowModel="CACC" laneChangeModel="LC2013" lcAssertive="0.868" actionStepLength="0.100"/>

		<vType id="cav94" tau="0.600" tauCACCToACC="1.482" length="5" width="1.800" accel="1.071" decel="3.600" emergencyDecel="9" vClass="custom2" carFollowModel="CACC" laneChangeModel="LC2013" lcAssertive="0.826" actionStepLength="0.100"/>

		<vType id="cav95" tau="0.600" tauCACCToACC="1.788" length="5" width="1.800" accel="1.235" decel="2.779" emergencyDecel="9" vClass="custom2" carFollowModel="CACC" laneChangeModel="LC2013" lcAssertive="0.875" actionStepLength="0.100"/>

		<vType id="cav96" tau="0.600" tauCACCToACC="1.326" length="5" width="1.800" accel="1.411" decel="2.030" emergencyDecel="9" vClass="custom2" carFollowModel="CACC" laneChangeModel="LC2013" lcAssertive="0.875" actionStepLength="0.100"/>

		<vType id="cav97" tau="0.600" tauCACCToACC="1.665" length="5" width="1.800" accel="1.142" decel="2.333" emergencyDecel="9" vClass="custom2" carFollowModel="CACC" laneChangeModel="LC2013" lcAssertive="0.848" actionStepLength="0.100"/>

		<vType id="cav98" tau="0.600" tauCACCToACC="1.845" length="5" width="1.800" accel="0.983" decel="2.685" emergencyDecel="9" vClass="custom2" carFollowModel="CACC" laneChangeModel="LC2013" lcAssertive="0.835" actionStepLength="0.100"/>

		<vType id="cav99" tau="0.600" tauCACCToACC="1.562" length="5" width="1.800" accel="1.591" decel="2.645" emergencyDecel="9" vClass="custom2" carFollowModel="CACC" laneChangeModel="LC2013" lcAssertive="0.865" actionStepLength="0.100"/>

		<vType id="cav100" tau="0.600" tauCACCToACC="1.715" length="5" width="1.800" accel="1.199" decel="3.423" emergencyDecel="9" vClass="custom2" carFollowModel="CACC" laneChangeModel="LC2013" lcAssertive="0.846" actionStepLength="0.100"/>

		<vType id="cav101" tau="0.600" tauCACCToACC="1.740" length="5" width="1.800" accel="1.397" decel="3.099" emergencyDecel="9" vClass="custom2" carFollowModel="CACC" laneChangeModel="LC2013" lcAssertive="0.861" actionStepLength="0.100"/>

		<vType id="cav102" tau="0.600" tauCACCToACC="1.276" length="5" width="1.800" accel="1.444" decel="3.166" emergencyDecel="9" vClass="custom2" carFollowModel="CACC" laneChangeModel="LC2013" lcAssertive="0.858" actionStepLength="0.100"/>

		<vType id="cav103" tau="0.600" tauCACCToACC="1.698" length="5" width="1.800" accel="1.615" decel="2.165" emergencyDecel="9" vClass="custom2" carFollowModel="CACC" laneChangeModel="LC2013" lcAssertive="0.842" actionStepLength="0.100"/>

		<vType id="cav104" tau="0.600" tauCACCToACC="1.447" length="5" width="1.800" accel="1.128" decel="3.292" emergencyDecel="9" vClass="custom2" carFollowModel="CACC" laneChangeModel="LC2013" lcAssertive="0.831" actionStepLength="0.100"/>

		<vType id="cav105" tau="0.600" tauCACCToACC="1.554" length="5" width="1.800" accel="1.001" decel="2.515" emergencyDecel="9" vClass="custom2" carFollowModel="CACC" laneChangeModel="LC2013" lcAssertive="0.866" actionStepLength="0.100"/>

		<vType id="cav106" tau="0.600" tauCACCToACC="1.412" length="5" width="1.800" accel="0.948" decel="2.983" emergencyDecel="9" vClass="custom2" carFollowModel="CACC" laneChangeModel="LC2013" lcAssertive="0.872" actionStepLength="0.100"/>

		<vType id="cav107" tau="0.600" tauCACCToACC="1.747" length="5" width="1.800" accel="1.220" decel="3.666" emergencyDecel="9" vClass="custom2" carFollowModel="CACC" laneChangeModel="LC2013" lcAssertive="0.892" actionStepLength="0.100"/>

		<vType id="cav108" tau="0.600" tauCACCToACC="1.705" length="5" width="1.800" accel="1.728" decel="3.191" emergencyDecel="9" vClass="custom2" carFollowModel="CACC" laneChangeModel="LC2013" lcAssertive="0.845" actionStepLength="0.100"/>

		<vType id="cav109" tau="0.600" tauCACCToACC="1.767" length="5" width="1.800" accel="0.787" decel="3.100" emergencyDecel="9" vClass="custom2" carFollowModel="CACC" laneChangeModel="LC2013" lcAssertive="0.835" actionStepLength="0.100"/>

		<vType id="cav110" tau="0.600" tauCACCToACC="1.501" length="5" width="1.800" accel="1.104" decel="2.991" emergencyDecel="9" vClass="custom2" carFollowModel="CACC" laneChangeModel="LC2013" lcAssertive="0.847" actionStepLength="0.100"/>

		<vType id="cav111" tau="0.600" tauCACCToACC="1.590" length="5" width="1.800" accel="1.299" decel="2.493" emergencyDecel="9" vClass="custom2" carFollowModel="CACC" laneChangeModel="LC2013" lcAssertive="0.838" actionStepLength="0.100"/>

		<vType id="cav112" tau="0.600" tauCACCToACC="1.394" length="5" width="1.800" accel="0.983" decel="2.132" emergencyDecel="9" vClass="custom2" carFollowModel="CACC" laneChangeModel="LC2013" lcAssertive="0.854" actionStepLength="0.100"/>

		<vType id="cav113" tau="0.600" tauCACCToACC="1.680" length="5" width="1.800" accel="1.550" decel="2.734" emergencyDecel="9" vClass="custom2" carFollowModel="CACC" laneChangeModel="LC2013" lcAssertive="0.849" actionStepLength="0.100"/>

		<vType id="cav114" tau="0.600" tauCACCToACC="1.600" length="5" width="1.800" accel="1.912" decel="2.616" emergencyDecel="9" vClass="custom2" carFollowModel="CACC" laneChangeModel="LC2013" lcAssertive="0.853" actionStepLength="0.100"/>

		<vType id="cav115" tau="0.600" tauCACCToACC="1.520" length="5" width="1.800" accel="1.531" decel="3.351" emergencyDecel="9" vClass="custom2" carFollowModel="CACC" laneChangeModel="LC2013" lcAssertive="0.877" actionStepLength="0.100"/>

		<vType id="cav116" tau="0.600" tauCACCToACC="1.653" length="5" width="1.800" accel="1.500" decel="2.066" emergencyDecel="9" vClass="custom2" carFollowModel="CACC" laneChangeModel="LC2013" lcAssertive="0.848" actionStepLength="0.100"/>

		<vType id="cav117" tau="0.600" tauCACCToACC="1.575" length="5" width="1.800" accel="1.690" decel="2.308" emergencyDecel="9" vClass="custom2" carFollowModel="CACC" laneChangeModel="LC2013" lcAssertive="0.887" actionStepLength="0.100"/>

		<vType id="cav118" tau="0.600" tauCACCToACC="1.235" length="5" width="1.800" accel="1.978" decel="3.173" emergencyDecel="9" vClass="custom2" carFollowModel="CACC" laneChangeModel="LC2013" lcAssertive="0.862" actionStepLength="0.100"/>

		<vType id="cav119" tau="0.600" tauCACCToACC="1.637" length="5" width="1.800" accel="1.820" decel="2.317" emergencyDecel="9" vClass="custom2" carFollowModel="CACC" laneChangeModel="LC2013" lcAssertive="0.859" actionStepLength="0.100"/>

		<vType id="cav120" tau="0.600" tauCACCToACC="1.343" length="5" width="1.800" accel="1.564" decel="2.581" emergencyDecel="9" vClass="custom2" carFollowModel="CACC" laneChangeModel="LC2013" lcAssertive="0.883" actionStepLength="0.100"/>

		<vType id="cav121" tau="0.600" tauCACCToACC="1.660" length="5" width="1.800" accel="1.734" decel="2.016" emergencyDecel="9" vClass="custom2" carFollowModel="CACC" laneChangeModel="LC2013" lcAssertive="0.840" actionStepLength="0.100"/>

		<vType id="cav122" tau="0.600" tauCACCToACC="1.160" length="5" width="1.800" accel="1.018" decel="2.557" emergencyDecel="9" vClass="custom2" carFollowModel="CACC" laneChangeModel="LC2013" lcAssertive="0.860" actionStepLength="0.100"/>

		<vType id="cav123" tau="0.600" tauCACCToACC="1.399" length="5" width="1.800" accel="1.367" decel="2.955" emergencyDecel="9" vClass="custom2" carFollowModel="CACC" laneChangeModel="LC2013" lcAssertive="0.870" actionStepLength="0.100"/>
